/*--------------------------------*- C++ -*----------------------------------*\
| =========                 |                                                 |
| \\      /  F ield         | OpenFOAM: The Open Source CFD Toolbox           |
|  \\    /   O peration     | Version:  1.7.1                                 |
|   \\  /    A nd           | Web:      www.OpenFOAM.com                      |
|    \\/     M anipulation  |                                                 |
\*---------------------------------------------------------------------------*/
FoamFile
{
    version     2.0;
    format      ascii;
    class       dictionary;
    location    "system";
    object      fieldPropertiesDict;
}
// * * * * * * * * * * * * * * * * * * * * * * * * * * * * * * * * * * * * * //


dsmcFields
(
     field
     {
         fieldModel          	dsmcVolFields;
 
         timeProperties
         {
         	  timeOption          write;
 	    	    resetAtOutput		on;
         }
 
         dsmcVolFieldsProperties
         {
             fieldName               N2;
             typeIds                 (N2);
         }
     }

     field
     {
         fieldModel          	dsmcVolFields;
 
         timeProperties
         {
         	  timeOption          write;
 	    	    resetAtOutput		on;
         }
 
         dsmcVolFieldsProperties
         {
             fieldName               O2;
             typeIds                 (O2);
         }
     }

     
     field
     {
         fieldModel          	dsmcVolFields;
 
         timeProperties
         {
         	  timeOption          write;
 	    	    resetAtOutput		on;
         }
 
         dsmcVolFieldsProperties
         {
             fieldName               mixture;
             typeIds                 (N2 O2);
         }
     }
);

// ************************************************************************* //
