/*--------------------------------*- C++ -*----------------------------------*\
| =========                 |                                                 |
| \\      /  F ield         | OpenFOAM: The Open Source CFD Toolbox           |
|  \\    /   O peration     | Version:  1.6                                   |
|   \\  /    A nd           | Web:      www.OpenFOAM.org                      |
|    \\/     M anipulation  |                                                 |
\*---------------------------------------------------------------------------*/
FoamFile
{
    version     2.0;
    format      ascii;
    class       dictionary;
    location    "system";
    object      dsmcInitialiseDict;
}
// * * * * * * * * * * * * * * * * * * * * * * * * * * * * * * * * * * * * * //
configurations
(
    configuration
    {
		    type                dsmcMeshFill;

        numberDensities
        {
   			    N2         		3.2320494711701479e+19;
            O2             8.591523910705456e+18;
		    };
		    	
		    translationalTemperature     	2000.0;
     		rotationalTemperature     		2000.0;
     		vibrationalTemperature     		2000.0;
     		electronicTemperature            0.0;

		    velocity        (0.0 0.0 0.0);
    }
);

// ************************************************************************* //
