/*--------------------------------*- C++ -*----------------------------------*\
| =========                 |                                                 |
| \\      /  F ield         | OpenFOAM: The Open Source CFD Toolbox           |
|  \\    /   O peration     | Version:  v1706                                 |
|   \\  /    A nd           | Web:      www.OpenFOAM.com                      |
|    \\/     M anipulation  |                                                 |
\*---------------------------------------------------------------------------*/
FoamFile
{
    version     2.0;
    format      ascii;
    class       Cloud<dsmcParcel>;
    location    "0/lagrangian/dsmc";
    object      positions;
}
// * * * * * * * * * * * * * * * * * * * * * * * * * * * * * * * * * * * * * //

9999
(
(2.02803729270451e-06 4.20804704926693e-06 6.69769784162677e-06) 0
(5.10435299341925e-07 7.96100859664074e-06 8.9289194164426e-06) 0
(4.79581809966074e-07 4.08704292325423e-06 7.33392452482997e-06) 0
(2.21333292564756e-06 2.48016729488365e-06 4.24622488349383e-06) 0
(2.84779109547149e-07 2.36948509270095e-06 4.43586209653267e-06) 0
(1.9521834634187e-06 5.53227480122539e-06 6.09936558132846e-06) 0
(1.57599282979225e-06 6.31492446262156e-06 6.36796913569038e-06) 0
(2.67845017993832e-06 3.69115970417184e-06 6.06739951211402e-06) 0
(1.86887575050198e-06 3.42110745860412e-06 5.27363387228666e-06) 0
(1.01042002526695e-06 2.30987812936176e-06 3.15190245486418e-06) 0
(5.56170770311049e-08 1.94445110190935e-06 4.40043551937761e-06) 0
(5.84834573658419e-07 3.54825209287213e-06 9.30997810163504e-06) 0
(3.11671341257558e-08 4.98283253609541e-06 5.27046529523213e-06) 0
(2.13730481594004e-06 3.41824084525962e-06 4.72253678106894e-06) 0
(2.47346721470338e-06 5.06997130574289e-06 6.33586895273028e-06) 0
(8.68702010060822e-07 5.99032490281864e-06 8.49587401865435e-06) 0
(5.13566698788903e-07 1.28819064000583e-06 3.22380143268836e-06) 0
(2.72868717426912e-06 5.01456100611629e-06 5.26584788323918e-06) 0
(9.13945182033782e-07 1.39030031559619e-06 7.94708837331543e-06) 0
(3.45212976879861e-06 5.11786825455573e-06 5.69259685155408e-06) 0
(2.1888976849409e-07 5.44644030736359e-06 5.79953053557441e-06) 0
(2.97301065655521e-06 3.08490689612491e-06 5.03608582435163e-06) 0
(1.20784070988408e-06 4.30866575005437e-06 5.25561471778049e-06) 0
(2.81273215338942e-07 1.79118334177158e-06 3.60270255195164e-06) 0
(4.48780365799273e-08 8.34185216371335e-07 9.91333784667122e-06) 0
(9.17402815112212e-09 1.84086496472862e-06 1.84310947940208e-06) 0
(1.81367085502528e-06 2.77933770975048e-06 7.10182407376907e-06) 0
(9.30228973104477e-07 1.8105319491087e-06 7.85666502352807e-06) 0
(2.5820039701628e-06 4.58684090863025e-06 5.65016720911446e-06) 0
(1.04333611580218e-06 5.35492965368798e-06 5.5772705954602e-06) 0
(2.69472122194136e-06 6.59553477702405e-06 7.1813028794657e-06) 0
(1.5783083864209e-06 2.8920610889565e-06 3.74660723165787e-06) 0
(4.04547267470878e-07 2.05528592445996e-06 7.32263547437453e-06) 0
(9.1392177703808e-07 1.44414640987973e-06 7.74789461949295e-06) 0
(1.09103546211314e-06 6.67756117394058e-06 8.79704304044269e-06) 0
(1.87598152662011e-06 2.35448579606095e-06 6.56596994552187e-06) 0
(1.6699259324786e-06 4.36236867101767e-06 5.47372838331066e-06) 0
(7.03188682866305e-07 1.05563319812653e-06 5.05657139212978e-06) 0
(7.6146739202402e-07 6.5837487896342e-06 7.81059339744919e-06) 0
(4.407925383628e-07 5.66848287219806e-07 7.80956869494993e-07) 0
(2.41671417335864e-06 3.51463409504705e-06 7.26568738937671e-06) 0
(1.46151183764692e-06 3.80091229101277e-06 4.83635904890354e-06) 0
(1.85292127158464e-06 5.78889206624114e-06 6.92697966310041e-06) 0
(1.28296387732258e-06 3.95577581508016e-06 7.8534575876647e-06) 0
(1.12352119797643e-06 2.35549968691972e-06 5.69470802401758e-06) 0
(5.06353869883949e-07 3.1305436569823e-06 6.79537186983593e-06) 0
(1.0185136094095e-06 1.30561607157999e-06 4.82464607263514e-06) 0
(4.59894024891803e-07 2.37382461968103e-06 3.57228471167893e-06) 0
(1.28252092414323e-06 5.28751018560387e-06 5.31852364488847e-06) 0
(1.4688831424715e-06 2.76312120289017e-06 6.84798395272804e-06) 0
(6.31327343650394e-07 3.73481035183895e-06 8.34522013077903e-06) 0
(1.24808806156798e-06 3.46529706571003e-06 3.96911306542711e-06) 0
(1.73930470669079e-06 3.96031684968522e-06 4.45624236395181e-06) 0
(3.28157099415073e-06 4.98400322430005e-06 6.21296112807418e-06) 0
(3.48815991046916e-07 2.51330435188342e-06 4.4694011430717e-06) 0
(2.31918350271165e-08 6.02174436391801e-06 7.46796977361013e-06) 0
(2.75300362704259e-06 6.91260976756221e-06 7.24404598573498e-06) 0
(1.03564563273197e-06 2.30269658980911e-06 2.84624577690005e-06) 0
(3.05824520501483e-06 5.11858649978604e-06 5.64600019904494e-06) 0
(1.76885018684279e-06 2.40735399551221e-06 2.51952202834728e-06) 0
(1.65527747259642e-07 4.70513838093675e-06 5.15974278366175e-06) 0
(1.05846787681454e-06 1.5872644966695e-06 4.61952478332968e-06) 0
(3.88565580196776e-08 1.18111358286219e-06 6.21010401599468e-06) 0
(2.83396796910699e-06 3.38584073800428e-06 4.47491354992953e-06) 0
(2.32937081855715e-06 5.42205135599508e-06 7.07717776671958e-06) 0
(1.09170155442888e-06 3.5979478246295e-06 4.78202894496752e-06) 0
(7.63618779500437e-07 2.25849155167309e-06 6.46855433623037e-06) 0
(1.71341892829631e-06 3.73077851290628e-06 6.61303504068226e-06) 0
(1.67962705758864e-07 6.29921451529144e-06 8.06819701113431e-06) 0
(4.0170794444844e-07 4.11793171211343e-07 2.66798386411558e-06) 0
(4.09725576157189e-07 2.66718397681379e-06 3.54448511036784e-06) 0
(2.39136781974656e-06 6.82143310016839e-06 7.37809508807109e-06) 0
(2.24361284652536e-06 2.9520580367698e-06 3.97996776270494e-06) 0
(8.78430239457071e-07 5.56344400854753e-06 7.72688065165381e-06) 0
(4.19035781569814e-07 5.48168068758065e-06 9.45598494290538e-06) 0
(1.58535008455264e-06 2.64780252022888e-06 8.14605413503941e-06) 0
(2.59199421649774e-06 3.82490325532006e-06 5.42163309439109e-06) 0
(1.32506513809139e-06 3.70428468557906e-06 7.77000344944616e-06) 0
(1.6339474843924e-06 1.8396293726042e-06 4.56134105057435e-06) 0
(7.13321553484043e-07 2.01490918370773e-06 9.01670087137191e-06) 0
(2.24289100177073e-06 3.421812861059e-06 7.18105191135846e-06) 0
(6.74879259804353e-07 9.63186278247879e-07 9.63964885891127e-07) 0
(4.58478871653387e-07 2.29448577733743e-06 2.92936486832501e-06) 0
(3.12546622823751e-06 3.59462571649425e-06 6.39782823448895e-06) 0
(1.22766672225207e-07 1.71758186195349e-06 4.82105456110586e-06) 0
(8.42151583338424e-07 4.39625655827522e-06 4.7791009754714e-06) 0
(2.52993405234978e-07 5.79231127173399e-06 8.81933028830238e-06) 0
(1.15818265813465e-06 2.35533099420648e-06 2.44032823395676e-06) 0
(4.26849525326194e-07 8.46389778425911e-06 8.9072396647134e-06) 0
(2.04151402959621e-06 4.24386371774027e-06 5.30707327293207e-06) 0
(4.08993515006824e-07 5.29598930926065e-06 7.44031149914393e-06) 0
(2.42681075558549e-06 3.78284593938472e-06 3.91263798804699e-06) 0
(1.58651008725704e-06 6.73186720655524e-06 7.97535160391368e-06) 0
(2.30383435496224e-06 3.60207780962094e-06 7.39500647628995e-06) 0
(1.97799935609565e-06 4.27427611854617e-06 6.26911479244585e-06) 0
(2.28139098635074e-06 4.66140687231162e-06 6.48385893453456e-06) 0
(2.32340739034337e-06 2.51442080491783e-06 6.17778238524684e-06) 0
(1.31972722693849e-06 4.38334886833836e-06 7.57444497197312e-06) 0
(1.84584718524727e-06 2.69050648560631e-06 7.74260958027481e-06) 0
(2.74276950886081e-06 6.21660990827332e-06 6.38426700779183e-06) 0
(3.58621591900299e-07 6.35332856871655e-06 6.70159335857699e-06) 0
(4.20662264125706e-07 3.9687994814498e-06 7.87534448267058e-06) 0
(1.44604792441863e-06 3.72386196432798e-06 5.77574606196597e-06) 0
(1.49783514502245e-06 4.34455848566243e-06 8.00869864855839e-06) 0
(8.09008432098661e-07 1.566203798301e-06 8.79827844792169e-06) 0
(9.87206503626279e-07 2.77951369610209e-06 2.8736182688329e-06) 0
(6.46206783697725e-07 2.4254436019852e-06 7.69265168015229e-06) 0
(2.36405926411186e-06 3.17163910507817e-06 3.85113234520196e-06) 0
(1.65780940862708e-06 2.88459076759024e-06 5.77420432436066e-06) 0
(1.28195099567298e-06 2.29354023438583e-06 7.20373045276075e-06) 0
(2.5378189190457e-07 6.92464128292384e-06 9.24980335057109e-06) 0
(3.58058910276267e-07 6.99453505906627e-06 7.03542068230524e-06) 0
(2.17071828452623e-06 3.24924822993365e-06 6.70746182527831e-06) 0
(1.64221661513828e-07 2.83849819333973e-06 5.71208806208695e-06) 0
(1.55648996782398e-06 4.32630665111502e-06 5.67203908053207e-06) 0
(1.30120946310035e-06 1.60522666178133e-06 8.37571031513127e-06) 0
(9.48727873961577e-07 1.82041790222632e-06 4.73301827731367e-06) 0
(2.98355524436769e-07 2.65953793208668e-06 6.26527476741677e-06) 0
(7.14838361559966e-07 1.19333090197545e-06 7.26098853738455e-06) 0
(8.24179448500413e-07 2.46525019526127e-06 6.35389475516275e-06) 0
(1.21275762916591e-06 2.36970259652994e-06 6.13172846468677e-06) 0
(1.74276892497538e-08 6.91594875796762e-06 8.33799628666716e-06) 0
(7.45176919821642e-07 3.27719011566076e-06 8.36213545584639e-06) 0
(1.37524018385774e-06 3.56492171700944e-06 7.06589010616289e-06) 0
(9.04831802573174e-07 2.47676772737771e-06 7.42095942376251e-06) 0
(3.04071940143592e-06 4.0938925499753e-06 6.86076599557273e-06) 0
(1.26000590211065e-06 1.70447495819642e-06 5.59397641240752e-06) 0
(2.69046225393748e-07 1.49319760796855e-06 4.66121322304714e-06) 0
(8.79949964317728e-07 2.53078551364874e-06 7.07612733798131e-06) 0
(2.79816305172545e-06 4.32017292567185e-06 6.84495558508768e-06) 0
(2.57029631236746e-06 5.35978221779798e-06 5.76314716341466e-06) 0
(1.40274938464406e-06 4.77125235402996e-06 6.51874176530958e-06) 0
(1.38774315875008e-07 1.44105669901544e-06 4.45842653915394e-06) 0
(7.29724632009372e-07 4.2146751469582e-06 6.82635944408084e-06) 0
(2.30361584804088e-06 6.62187923315438e-06 6.94559229756065e-06) 0
(3.45566048613806e-06 3.87466822035458e-06 5.71554397564052e-06) 0
(9.43785806650066e-07 3.62870939486134e-06 3.89006919795152e-06) 0
(7.40579493965168e-07 1.28185341923748e-06 2.47086511886698e-06) 0
(1.19955791320963e-06 5.05980887502181e-06 7.84088554059755e-06) 0
(9.79766538690736e-07 1.7001024119943e-06 4.06154266375983e-06) 0
(1.49964429884536e-06 6.61893024037907e-06 8.37531764775919e-06) 0
(2.61645649336106e-07 7.46545944916727e-06 8.57057188560555e-06) 0
(4.50521050254391e-07 4.01618681028355e-06 8.98209759573424e-06) 0
(2.25384008269732e-06 4.78525758572104e-06 5.76907682648141e-06) 0
(1.55205373965716e-06 4.38908193571516e-06 4.85227257786901e-06) 0
(7.42964363550485e-07 6.10157412965084e-06 8.46372798522044e-06) 0
(1.5667974948121e-07 1.10545915655097e-06 4.55091679242818e-06) 0
(8.50714009942291e-07 4.45123598416979e-06 8.00377305491699e-06) 0
(4.72994819660482e-07 2.36425940106615e-06 3.24594016813718e-06) 0
(1.88263601707988e-06 3.78834658121125e-06 4.80431931354527e-06) 0
(3.18586320479058e-06 3.8030366846351e-06 3.81369028489759e-06) 0
(5.79289406620074e-07 8.60208688840837e-06 8.76199757880761e-06) 0
(1.77562298497049e-06 3.00170838978696e-06 7.98446585381919e-06) 0
(1.17971151849448e-06 1.3068138759416e-06 6.56062366611886e-06) 0
(1.80174751839408e-06 6.67952887261508e-06 7.16113379292301e-06) 0
(1.77590761204222e-06 4.41457694566719e-06 4.73839174481288e-06) 0
(2.22045405279356e-07 3.06503356112311e-06 4.45841610298738e-06) 0
(2.52850327188323e-07 1.81566348858718e-06 4.11521466127025e-06) 0
(1.96107149924634e-06 2.10214794484214e-06 5.58385229275965e-06) 0
(2.43688345020328e-07 2.13437068712322e-06 8.99570269385498e-06) 0
(4.1268506350848e-07 6.74813707382409e-07 1.32750441224593e-06) 0
(2.20126785715449e-06 3.6008981877624e-06 7.33606033824378e-06) 0
(5.07886986180122e-07 4.2791278301778e-06 4.3300823489996e-06) 0
(3.51294401804072e-07 2.49075855535816e-06 9.19347715200575e-06) 0
(8.3734057606554e-07 2.72883764267823e-06 8.0980874686445e-06) 0
(3.049891837935e-06 3.17557968596359e-06 5.40279839681352e-06) 0
(1.30152951547673e-06 2.02031522275773e-06 2.92766219138516e-06) 0
(4.31923404241683e-07 3.12732395235228e-06 4.65289872036179e-06) 0
(1.42476432981022e-06 3.21710396345582e-06 4.93756760634758e-06) 0
(3.5678851096427e-06 3.88529772821551e-06 5.63902709177929e-06) 0
(4.07344371834331e-07 4.33146349955162e-07 4.1976191746314e-06) 0
(2.15568472375653e-06 2.2088296438414e-06 6.84237554352913e-06) 0
(2.14238608240613e-08 1.2527055493109e-06 8.58881271383316e-06) 0
(7.67715276268337e-07 3.53774520610125e-06 4.40474908593581e-06) 0
(2.72561886623576e-06 4.17801301438933e-06 4.42591497554803e-06) 0
(1.23871435970489e-06 2.92607728821928e-06 4.50670880372613e-06) 0
(3.67959458212118e-06 3.80693305765325e-06 5.05724192433179e-06) 0
(4.56790404938197e-07 6.81848792120093e-06 7.42621557016612e-06) 0
(7.870437143667e-07 1.2719808786566e-06 8.80885332721428e-06) 0
(3.6123688626132e-07 1.7763578959123e-06 4.86403805668067e-06) 0
(7.91743273399117e-07 1.1380269180402e-06 1.51953997558218e-06) 0
(2.17366899833102e-06 4.50067339034032e-06 7.31953123931877e-06) 0
(2.09712319706329e-06 2.16928702786388e-06 5.77762919818342e-06) 0
(6.02871577935993e-07 2.51930353421926e-06 9.39229853227843e-06) 0
(6.98551089111454e-08 4.39839858831641e-06 6.35400890584874e-06) 0
(1.92959875080689e-06 4.77074249838754e-06 8.06257247364268e-06) 0
(1.05657844154555e-06 2.92887871606938e-06 8.22502916128206e-06) 0
(2.49178208969129e-06 5.49924596188669e-06 6.15567315377655e-06) 0
(2.23830381188241e-06 5.4319942767073e-06 5.7624737744583e-06) 0
(1.17664489461253e-06 4.64640615547781e-06 7.36580810040783e-06) 0
(1.23887751649894e-06 1.9478990526166e-06 8.22987395199425e-06) 0
(8.2014263811276e-07 6.34022419963367e-06 7.00431646260478e-06) 0
(4.80366355829975e-07 2.29817976575832e-06 9.31403584676891e-06) 0
(5.48309234988231e-08 6.49867362343793e-06 8.83065714241068e-06) 0
(1.81479343018243e-07 4.92544034974056e-07 2.45123924739138e-06) 0
(2.0634878571529e-06 7.10354908182376e-06 7.8429020124006e-06) 0
(2.21507439069997e-06 5.57045395749354e-06 6.77072743374426e-06) 0
(2.5685477703056e-06 5.30453002741149e-06 6.96500824975649e-06) 0
(1.05064227578389e-08 2.60484013753088e-06 4.51960854578301e-06) 0
(1.23507329404912e-06 1.95937859207362e-06 5.17070245978552e-06) 0
(2.99999132206549e-06 3.89300175179303e-06 5.35553329006488e-06) 0
(4.29139934870388e-07 2.4314564491563e-06 8.9679691722103e-06) 0
(6.00117290835787e-07 2.44007651315995e-06 4.69047640561337e-06) 0
(1.97183491828614e-06 2.90570253032776e-06 3.60302058867973e-06) 0
(1.03076523178084e-06 4.10017520886933e-06 6.18705496919999e-06) 0
(9.10847941265018e-07 5.66070108178767e-06 8.28176743019807e-06) 0
(7.86010948830374e-08 6.56868922979621e-06 9.14140218938607e-06) 0
(1.53425269350121e-06 5.42456137482029e-06 5.74868995189183e-06) 0
(2.44894059855252e-07 3.08273954617837e-06 8.80257443438213e-06) 0
(2.10194093006919e-07 9.28644525438461e-06 9.48370988713105e-06) 0
(5.18062616390989e-07 1.50033071079557e-06 5.40916537571301e-06) 0
(7.59445323224224e-07 5.00557069197724e-06 8.61293336070586e-06) 0
(3.53940219802974e-06 4.69787128437146e-06 5.14004350808412e-06) 0
(8.37276129803879e-07 3.1749652448263e-06 5.78413508735933e-06) 0
(4.26382276779176e-07 6.28143421816629e-06 7.50866950796615e-06) 0
(2.21811554172811e-06 3.87277239881295e-06 7.00606395740751e-06) 0
(7.82507069981566e-07 2.41213941415763e-06 5.47449429693634e-06) 0
(2.62420707787996e-07 1.22982108824889e-06 2.26082594262156e-06) 0
(1.09828796563987e-06 2.11859684079846e-06 4.69883957363537e-06) 0
(8.0187179287023e-07 3.37213959500939e-06 6.95334261564394e-06) 0
(3.06844752126684e-06 3.61678328810813e-06 4.10145121361529e-06) 0
(2.52834744228069e-06 3.08833009232155e-06 6.90420410521094e-06) 0
(2.67944816817115e-06 2.98727327927507e-06 5.28602162971348e-06) 0
(1.15405269067265e-06 7.76779538302774e-06 7.91339368278754e-06) 0
(8.00812956831987e-07 9.19969285418265e-07 1.91641056989377e-06) 0
(3.80590163169646e-06 4.29701621688601e-06 4.45452686231874e-06) 0
(1.00041407093483e-06 3.85956725145269e-06 8.58452680890453e-06) 0
(1.4542405187308e-06 3.70966160029974e-06 4.86270428372771e-06) 0
(8.42563511317938e-07 3.91645152245244e-06 5.45356444433148e-06) 0
(6.02463042135035e-07 6.37565522247321e-06 8.58908067108651e-06) 0
(3.82197813750373e-08 1.26579898526503e-06 5.69935315889017e-06) 0
(4.95457210060319e-07 2.77908313429402e-06 6.32213662179906e-06) 0
(1.48319775043726e-06 3.50954445497395e-06 3.74151856311363e-06) 0
(1.5638568509452e-07 8.61189224549332e-06 9.74352993745004e-06) 0
(1.18476923346377e-06 5.73168819855615e-06 6.78197972779303e-06) 0
(1.01601128595128e-07 1.0361883669944e-07 3.35304419043865e-06) 0
(3.00940596188495e-06 3.13960289277825e-06 3.74879536358124e-06) 0
(2.81669450811092e-06 3.82980426091644e-06 7.15873582384665e-06) 0
(8.31420580782787e-07 1.71814972531061e-06 6.05034810987698e-06) 0
(1.54027995601046e-06 6.12253554957645e-06 6.29015518840495e-06) 0
(6.48087015295023e-07 1.57224269440574e-06 8.31331254744699e-06) 0
(7.76350556825189e-07 1.16778572750585e-06 6.07725598843023e-06) 0
(3.78183077882865e-06 4.29952875432926e-06 5.38095604962274e-06) 0
(2.10863900103249e-07 3.09271310565666e-06 3.32781782850756e-06) 0
(1.39265840894582e-06 3.52345107044583e-06 7.06525970667487e-06) 0
(1.50094825225208e-06 1.82467232488259e-06 4.59158903561194e-06) 0
(8.42776400260252e-07 2.82884286242622e-06 6.36919371452001e-06) 0
(1.85517301374372e-07 6.39781719889728e-06 6.8281601788704e-06) 0
(2.08290636375219e-06 5.21443476213561e-06 7.67842276747595e-06) 0
(1.33515951370491e-07 4.49081962515656e-06 6.75370195631523e-06) 0
(1.05619880639631e-06 5.10490763154165e-06 7.87754275068744e-06) 0
(4.38657263515534e-07 3.76353264238672e-06 5.48466823889966e-06) 0
(1.08750347666343e-06 5.12824633254448e-06 6.8682334916951e-06) 0
(1.56095643789733e-08 1.60944548111525e-06 9.96764862848272e-06) 0
(8.74971267689784e-07 5.87734373588129e-06 8.75493256000889e-06) 0
(1.30962731966372e-06 4.311166050315e-06 5.13396775769694e-06) 0
(7.59992006304149e-07 2.23567171446542e-06 3.91272969773878e-06) 0
(8.16974308715715e-07 2.80405706233058e-06 3.41609386321675e-06) 0
(7.64581026472211e-07 3.00163578871322e-06 8.25179386236668e-06) 0
(3.27005491536667e-07 5.38724764724176e-06 8.73384785371915e-06) 0
(1.25555259699008e-06 4.30443756586536e-06 5.39057915352315e-06) 0
(1.0069279731637e-06 3.22661304183047e-06 3.68973164129923e-06) 0
(9.43304641482534e-08 3.04269175809607e-06 6.60673125207419e-06) 0
(2.6685741828175e-06 3.57589389856857e-06 6.17925424541801e-06) 0
(4.64643270052054e-07 1.1796828866383e-06 9.09254915726811e-06) 0
(2.46144825535245e-06 3.79972430405926e-06 6.78006290830813e-06) 0
(1.19385335197931e-06 3.54608504283876e-06 5.99263553330756e-06) 0
(2.35892263210948e-06 4.49326285520153e-06 6.40719702398583e-06) 0
(2.28223675977882e-06 4.73217013524517e-06 5.7570676477126e-06) 0
(1.22327229080701e-06 3.58145659130935e-06 4.48603945079318e-06) 0
(1.44264082623385e-06 2.84595882851635e-06 6.67841995721252e-06) 0
(1.0551930643504e-06 5.7613079995633e-06 5.98446327532157e-06) 0
(7.92768815112392e-07 4.79517358339665e-06 7.47729270496967e-06) 0
(7.75605597925928e-07 3.23007835346454e-06 8.55432824031153e-06) 0
(2.63659228457128e-06 3.98665656847308e-06 6.17130947875085e-06) 0
(2.21503106444203e-07 5.52257439317071e-06 5.62993767578373e-06) 0
(2.28662099395525e-07 3.31234960521213e-06 8.3360237239201e-06) 0
(2.07342817307145e-06 5.42866633151371e-06 7.33573750460979e-06) 0
(1.16227807697337e-06 1.36502013875171e-06 6.41154211568951e-06) 0
(2.40648440101216e-06 4.22647126053471e-06 5.2881366926386e-06) 0
(5.39369135007366e-07 2.21168460573809e-06 7.13929473666161e-06) 0
(2.57802333351618e-06 2.61318562749123e-06 6.63284016469758e-06) 0
(5.40992780871186e-08 1.1731673542983e-06 3.9156911005219e-06) 0
(2.67673608989316e-07 5.24260372228463e-06 7.18841333932668e-06) 0
(2.66245801540475e-07 1.7805910650919e-06 7.70771441244166e-06) 0
(1.18441381224752e-07 1.75272146033359e-06 7.53599062451668e-06) 0
(2.7824604161351e-07 2.77348578626414e-06 4.88292695497089e-06) 0
(1.48819739682073e-06 7.4912670273636e-06 7.78314231997646e-06) 0
(2.21782983770717e-06 5.99553622140116e-06 6.65231378749025e-06) 0
(1.81848168194183e-06 2.70334466707638e-06 3.73525249883983e-06) 0
(5.150079037052e-07 6.12170098293172e-06 8.86509366026685e-06) 0
(7.6623671597531e-08 3.56690949592071e-07 1.50968706432717e-06) 0
(3.83294877939461e-06 5.02372295132924e-06 5.10233712944265e-06) 0
(1.06206377917323e-06 3.76398346493373e-06 7.7803529156437e-06) 0
(2.08994431841086e-06 2.98906558896428e-06 4.13459585296918e-06) 0
(2.76073091966822e-07 8.04115868282256e-06 9.07253758507178e-06) 0
(2.6115225545094e-06 2.94654488239489e-06 6.86343636790033e-06) 0
(2.39396758747791e-06 4.02377613694163e-06 7.2254251948705e-06) 0
(1.58497830909992e-06 3.34430774709224e-06 5.29176509269222e-06) 0
(6.21898111210424e-07 7.56424056343233e-06 8.70886747350069e-06) 0
(2.0264813362766e-06 3.39126855859954e-06 7.35368161578295e-06) 0
(1.39546817335038e-06 2.74726647641518e-06 3.93010453637874e-06) 0
(4.90030495738783e-07 3.01615273525611e-06 6.6034154712653e-06) 0
(3.01358255679673e-08 2.5703301703734e-06 8.02316629499419e-06) 0
(5.94310738930251e-07 8.1518398969269e-06 8.80156505651277e-06) 0
(2.12757803745998e-07 1.3307030127387e-06 6.50722376755629e-06) 0
(2.36895795635892e-07 5.8738240461194e-07 9.13493139628363e-06) 0
(3.9205376909468e-08 3.5665606978065e-06 3.56831396589508e-06) 0
(3.59595503135193e-07 2.40821522723374e-06 4.24062057340693e-06) 0
(3.93525614559049e-07 2.64888340473442e-06 3.39060581788877e-06) 0
(1.23414666169507e-06 1.7680717974226e-06 6.73809948910234e-06) 0
(1.11407326400615e-06 8.20085931782694e-06 8.37331820633429e-06) 0
(2.23185669210126e-06 3.05713954084956e-06 3.07122739720077e-06) 0
(2.92631201334412e-07 3.76282294210189e-07 2.64253871407623e-06) 0
(7.27883471608468e-07 5.31871632425718e-06 8.47890840987352e-06) 0
(2.8402973329136e-06 2.90543789717843e-06 6.90393632206321e-06) 0
(7.04071525646111e-07 4.43630876144065e-06 5.72779460405025e-06) 0
(1.52706833617023e-06 2.30236264678409e-06 6.02224607019826e-06) 0
(2.58765874581799e-06 5.51097146435948e-06 5.84148408164056e-06) 0
(4.74744395109283e-08 5.76335931281911e-06 7.38510437876585e-06) 0
(7.6026450261276e-07 1.53588337673151e-06 3.87123777287e-06) 0
(6.85027724010236e-07 6.24544104340314e-06 6.51635859674448e-06) 0
(5.54144130765852e-07 6.05442305279995e-06 8.90367020127163e-06) 0
(9.7701391827826e-07 3.86537689058539e-06 6.91621681431098e-06) 0
(3.36572355488816e-07 7.2083759899459e-06 7.27447180438494e-06) 0
(5.40867857316894e-07 3.89180083654248e-06 6.61112128727053e-06) 0
(1.76058423915588e-07 3.57835084122664e-06 8.38436459000336e-06) 0
(6.72662711617864e-07 3.87930324461502e-06 4.44502531448302e-06) 0
(1.32640766887436e-06 2.89589079669488e-06 5.2891871830453e-06) 0
(1.72884701356244e-06 2.00462700395457e-06 5.29139721960759e-06) 0
(5.60232467689712e-07 5.41379615681981e-06 6.14496424596028e-06) 0
(1.85061187092579e-07 1.93314915166283e-06 5.96753344252136e-06) 0
(9.69184439912478e-07 2.81269757964838e-06 6.10538075026488e-06) 0
(3.30953607478857e-06 3.78207461616967e-06 4.02750767515904e-06) 0
(9.51038434425318e-07 7.76776320870793e-06 8.2319874439955e-06) 0
(5.1585780212287e-07 8.02604056539256e-07 1.39513895287921e-06) 0
(4.79991150807297e-07 3.97609096261766e-06 8.02873258977135e-06) 0
(1.43705391610052e-07 1.445662784389e-06 6.2516719439118e-06) 0
(3.22500077683474e-06 5.71301731928282e-06 6.18967425983966e-06) 0
(5.21860193678876e-07 1.1187422784656e-06 9.406322172423e-06) 0
(2.03031833587808e-08 1.67810222302821e-06 9.17463263934684e-06) 0
(9.71572368067388e-07 3.24037266978559e-06 8.9896115256216e-06) 0
(2.08035749098114e-06 2.58841141631487e-06 4.53566271171413e-06) 0
(3.93374002205482e-06 4.2198001325198e-06 4.9269231018099e-06) 0
(1.13992036911894e-06 2.56597983015583e-06 5.54157202607568e-06) 0
(6.31328798882969e-08 7.23349439295848e-07 3.18058276807312e-06) 0
(1.694179239521e-07 6.96084187807808e-06 8.73112892790088e-06) 0
(1.05595089477566e-06 1.40233921710911e-06 2.5420515170274e-06) 0
(3.06965896426265e-06 5.29291841940042e-06 5.84918305050641e-06) 0
(2.20180174422579e-06 4.29478612637192e-06 6.88046926568324e-06) 0
(1.08780827311943e-07 7.74292336772563e-06 8.22981190882656e-06) 0
(1.21681642210982e-06 5.65994518486983e-06 6.28311718286144e-06) 0
(1.32984089098986e-07 4.53804959084716e-06 7.22009382139488e-06) 0
(8.9787622004831e-07 3.77373520591618e-06 7.64383813567925e-06) 0
(2.49775951642887e-06 4.84295980054108e-06 7.33987876167172e-06) 0
(8.17425982390194e-07 3.69060206202926e-06 7.74247110669416e-06) 0
(1.49239622169807e-06 2.52351078453147e-06 4.11813343105583e-06) 0
(1.79148202569708e-06 2.67716225286444e-06 3.17690952681838e-06) 0
(8.10514861904199e-07 2.81393411634292e-06 6.24731323581001e-06) 0
(4.69884089171124e-08 7.73957817795713e-06 8.07193803845086e-06) 0
(7.99022551327777e-07 1.56332643524065e-06 7.58240147708174e-06) 0
(1.37166163370035e-06 1.4980625014193e-06 3.58888457675492e-06) 0
(1.47794535486367e-06 1.55856328922804e-06 5.58841724598233e-06) 0
(5.46187584968703e-07 3.2215869678482e-06 6.29125657279394e-06) 0
(1.47007550281058e-06 4.30184448297817e-06 7.79836061627373e-06) 0
(2.07964332495548e-06 6.6345219846596e-06 7.15467306482578e-06) 0
(4.6899108227958e-08 1.48142166626881e-06 6.75582635284664e-06) 0
(2.24834203755185e-06 3.52063113569153e-06 4.15289013276192e-06) 0
(1.2262009740537e-07 8.57064101148328e-07 7.33670912678678e-06) 0
(3.21490733604755e-07 2.7850507859506e-06 5.48910862856516e-06) 0
(1.21084998422825e-06 5.89395164482765e-06 8.35654550366209e-06) 0
(1.05689768170256e-06 2.32961293313503e-06 6.98765465730004e-06) 0
(1.35639836132155e-06 1.77248923127374e-06 2.12335176526056e-06) 0
(4.7456816729671e-07 2.90874921640278e-06 4.64460565320071e-06) 0
(1.62315076489113e-06 1.66734701632764e-06 5.88791764221687e-06) 0
(5.64455745774417e-07 4.41506467535916e-06 6.64311241296218e-06) 0
(2.70430610132433e-07 4.78316034471513e-06 9.06689753833776e-06) 0
(2.83286218692265e-07 3.68484069294306e-06 5.0639418493533e-06) 0
(1.4128430810487e-06 1.76167058145333e-06 7.19379645825287e-06) 0
(9.06032430734172e-08 3.84488832926639e-06 4.88769739856917e-06) 0
(9.49755511819053e-07 7.630169941699e-06 8.73310607860136e-06) 0
(2.37458168238367e-06 3.27068517954297e-06 5.61644855537414e-06) 0
(1.30799435012962e-06 2.89688653545232e-06 5.19264486803442e-06) 0
(1.28492817698875e-06 1.60944363899601e-06 2.68030318784758e-06) 0
(2.74212299799432e-06 2.89658236168398e-06 6.58491441467922e-06) 0
(1.21833154028016e-06 3.59262487020372e-06 4.35209246634633e-06) 0
(7.48649853125496e-07 1.96711668181608e-06 6.61179952267849e-06) 0
(3.18307270956913e-06 3.21789968611649e-06 6.35421176798003e-06) 0
(8.11872558886133e-07 3.78237733420734e-06 8.05108702906514e-06) 0
(7.25921677465617e-07 4.9437471618945e-06 6.9629718687762e-06) 0
(2.22805487753812e-06 6.58977517270825e-06 7.58926549930655e-06) 0
(8.11567667994151e-07 5.1268196938017e-06 5.22756489541058e-06) 0
(1.20557453043814e-06 8.39263873345347e-06 8.4307574625022e-06) 0
(1.19844672906378e-06 1.69635399010048e-06 8.60915926250051e-06) 0
(2.87936709526253e-07 2.89044081643985e-06 8.10742766667849e-06) 0
(2.13952789933725e-07 2.52211142270164e-06 7.08955783898622e-06) 0
(1.43125961070547e-06 1.62081219462737e-06 2.55816124650599e-06) 0
(2.32378911591246e-06 3.67267352758065e-06 6.28921896048615e-06) 0
(6.54702565171359e-07 5.7816031446937e-06 5.96873538682553e-06) 0
(6.00784866675372e-07 1.80771076286954e-06 8.20186871914439e-06) 0
(1.73806983393346e-06 3.22661155485056e-06 5.0308227694258e-06) 0
(1.00326001516093e-06 3.95607350027488e-06 6.89514166840679e-06) 0
(2.92292588141923e-07 1.63326866188752e-06 8.40804894002114e-06) 0
(1.3004616521359e-06 3.72366077133504e-06 5.99970868069596e-06) 0
(2.26472764029891e-06 4.87342672453112e-06 5.38920577908042e-06) 0
(1.42985229561186e-06 2.10001398261406e-06 6.92025403613757e-06) 0
(1.38870552725177e-07 4.63913564446537e-06 4.87114242512798e-06) 0
(1.46623431790195e-06 3.06027548388213e-06 7.12253348739045e-06) 0
(1.91471832633782e-06 2.44417974185124e-06 4.63076032117231e-06) 0
(4.54643173093725e-07 3.48429713866265e-06 7.38880382478817e-06) 0
(4.10328068130479e-07 6.40759804385116e-07 6.86351935099285e-07) 0
(3.28340437469445e-06 5.03459683607341e-06 6.19679222766182e-06) 0
(1.57853874321345e-06 6.00274206013703e-06 6.67389489647535e-06) 0
(2.48212375753701e-06 4.83573594977004e-06 6.08211541246424e-06) 0
(1.08335412522083e-06 5.0193847338276e-06 7.50724425344172e-06) 0
(1.23489132428013e-06 6.83863975818536e-06 7.16215502008158e-06) 0
(1.33723388814458e-06 2.42910690753691e-06 7.95173965817567e-06) 0
(2.13409994008504e-07 2.06761694265589e-06 6.64467786295981e-06) 0
(5.17156482760175e-07 3.46167099854027e-06 3.7798896072802e-06) 0
(1.5466892386069e-07 5.43919144285042e-06 8.41976313063761e-06) 0
(1.55869885867405e-06 2.52786652543668e-06 4.95283025382681e-06) 0
(7.51699853567427e-07 2.68516880387454e-06 4.40879301307581e-06) 0
(6.01677431509451e-08 1.92997667387543e-06 5.03220193872176e-06) 0
(3.47225878069235e-07 1.67497300666467e-06 3.62933840556662e-06) 0
(2.31151488332815e-06 5.12850776456963e-06 5.41102325269113e-06) 0
(4.98731195148192e-07 3.03825037637148e-06 7.57762389685615e-06) 0
(1.26604347450082e-06 3.29665723944837e-06 4.18552704542103e-06) 0
(1.43028531464786e-07 2.23150906224895e-06 7.34687984837862e-06) 0
(4.12759934529401e-07 1.52232207116052e-06 3.56211322410127e-06) 0
(3.56488192473616e-07 7.6871888962671e-06 8.10903696767189e-06) 0
(1.02638037019316e-06 5.18480067561891e-06 5.25246949689434e-06) 0
(1.17672549365256e-06 6.54389970224926e-06 8.07726417557433e-06) 0
(9.054629349823e-07 3.81677915176537e-06 4.91510045999226e-06) 0
(3.60456323667435e-09 3.91062348483461e-06 5.82920950705278e-06) 0
(1.56756358374134e-06 5.24339285878243e-06 7.81028250505576e-06) 0
(8.24381908967986e-07 3.72410603887865e-06 8.23907091947632e-06) 0
(1.33316221778637e-06 5.92497306300926e-06 8.40981316270748e-06) 0
(7.39849408504316e-07 2.08697819351423e-06 7.94257797105802e-06) 0