/*--------------------------------*- C++ -*----------------------------------*\
| =========                 |                                                 |
| \\      /  F ield         | OpenFOAM: The Open Source CFD Toolbox           |
|  \\    /   O peration     | Version:  v1706                                 |
|   \\  /    A nd           | Web:      www.OpenFOAM.com                      |
|    \\/     M anipulation  |                                                 |
\*---------------------------------------------------------------------------*/
FoamFile
{
    version     2.0;
    format      ascii;
    class       vectorField;
    location    "0/lagrangian/dsmc";
    object      U;
}
// * * * * * * * * * * * * * * * * * * * * * * * * * * * * * * * * * * * * * //


9999
(
(965.365277428709 217.717602586971 -406.229473618717)
(257.14942925061 -1021.99614036241 1630.22781455351)
(773.043976596521 205.42979912224 -129.768257479705)
(538.711215366908 -241.923274757713 -542.744613647104)
(-570.42734304253 -515.725649842245 1253.54031345854)
(-282.404349728046 911.727744267863 348.618799820944)
(-491.946279399085 -337.184587471409 1286.64916256439)
(-338.923893068908 76.8959043844478 89.6485816015155)
(911.525546410764 835.125815373195 -11.4390072526535)
(211.654653063901 550.561110250274 -32.396337155643)
(-288.350120481747 1731.34160134266 969.864207335079)
(-572.979433218628 633.144635595318 -825.622808929351)
(-949.487297748666 -169.806617012359 -730.983453238702)
(577.10886243669 -431.540075228761 216.24327788882)
(-463.174549089865 1147.44546789158 635.076805110345)
(96.7050987442228 -404.486074011103 -1097.27902655071)
(-849.510582103719 -438.780441367854 -684.346127353081)
(-934.639870155746 1034.94106218487 -697.398604128753)
(457.24287054737 -1149.41138439766 5.13160292795065)
(1540.55915984043 46.2397166236438 525.328518846793)
(132.43345448786 -785.940193790733 -808.748877713304)
(415.22001086791 187.724715440281 1239.88954582843)
(1730.55816781179 -321.064559419002 1.50976151133202)
(-230.6169907387 -691.827384937153 19.7750657769828)
(1841.79158708162 -238.120239000374 656.153826357768)
(-419.704643802388 251.468268355346 -319.808136962369)
(-195.728989694889 606.608059693842 510.674642595458)
(-310.282483244221 89.5012611708119 976.500543451353)
(724.234567803437 180.826625638502 395.175974402569)
(-261.806959970661 341.43514685037 -152.566954406799)
(620.115200946209 181.39589718612 -360.523921296428)
(4.79630900761878 155.012786476893 436.888630006299)
(-354.506147102228 714.540807661782 129.254237076174)
(-1053.25866231965 648.175266022262 -623.201399554401)
(496.762633175645 -607.039065235516 -885.326259494004)
(137.085938211335 -804.186893665801 -586.601111880456)
(-247.562440752057 -37.0619401749541 -408.967284760507)
(705.049108604652 -434.657815177554 -1345.49910703794)
(573.251874235082 -404.269315591626 864.051175461519)
(452.164420547496 -1158.42174428406 361.122982628425)
(677.537498297912 214.327757940654 -1141.34626286972)
(-581.414851269052 -55.4730457942064 729.714230038897)
(574.49351872369 660.191517082656 -220.519370103693)
(277.069953012806 -70.5102360390948 -39.3367038685787)
(-400.56639556147 143.844365620489 -759.680712351345)
(-644.262135943879 98.4627083564367 -378.021247517467)
(494.923697285485 -506.091241334512 389.877297541314)
(-717.599872488666 -220.295844219022 -643.739650037649)
(519.878052913989 177.32395369457 -747.910003281016)
(549.736105603457 141.493983746249 266.470222906691)
(292.745504992374 65.1208932527603 -184.594632098196)
(437.79150733697 -37.143034750279 29.9120965048987)
(-1134.80850312951 -803.184247706496 899.848529764883)
(453.981422437976 -218.380524263918 230.931655528541)
(-227.178211965443 180.507410299213 378.881820386569)
(284.973094114831 51.5834820404449 -1007.4580341795)
(-1116.1896239131 1153.53304888341 75.1181850946982)
(866.000001072459 -551.671355141217 -231.835554629596)
(-126.534510864889 683.989807498721 446.348134783211)
(-496.262901777671 28.6844625888729 410.883755213719)
(-399.461809292304 3.87293718468798 -320.700869809934)
(-509.720388634532 528.571418965761 363.268228572029)
(123.622567698396 540.855235881203 -431.148438432877)
(784.383623049906 -247.416853337505 531.700247002212)
(525.234015041898 469.21211589734 1558.80214303888)
(551.896882967936 -142.123015298412 -122.460800832648)
(-117.242769050393 -590.055626458217 346.314217579143)
(-685.36259385063 -378.900099697484 -690.517580435937)
(-645.221143020203 -468.338335594594 471.800159834951)
(-29.5649508203869 484.535666592955 -140.111435841373)
(-223.37981427369 -466.384515832329 397.611557842386)
(-49.3315923160799 912.954810946515 98.4498862930489)
(-566.688087189444 258.10082322872 506.388318337573)
(603.263958992899 -791.563233086427 643.451696972112)
(-86.0726861887074 -570.960876717901 440.177538424772)
(1038.28022914016 163.168811819129 -879.557685005437)
(374.23867199383 1091.92017078748 856.490185371222)
(1203.78738663518 -1064.65445192401 244.605460183641)
(454.364600464883 342.397319305208 277.356979437716)
(-474.579743032121 -1033.44994001959 274.394722253818)
(-77.2617033878488 357.35642779375 313.773512605114)
(231.361043041982 -632.864775335592 -402.173009408104)
(-277.867176883921 911.996255666911 -125.010218637337)
(289.715518549295 -673.808919788519 60.8505118365481)
(-138.553898831153 -1260.77668115666 -440.606837220571)
(-298.295554466341 170.406915650391 -488.225242660309)
(390.393084181513 -842.488653726511 100.09954220556)
(209.641725378894 -1876.40086414457 -623.019531903548)
(-1423.18080234221 294.969204092373 -458.633676366927)
(1270.33221410946 285.163773299313 744.856264927961)
(-794.975093970451 0.46137368970395 198.270912714364)
(53.5802303933777 -110.82569181267 -659.384271015899)
(125.247137651819 628.947232748101 623.137689638224)
(-217.749523516908 -466.535956087189 -569.148749839418)
(-205.724206572821 -883.899993932753 -578.142713734081)
(-505.240822029786 -101.189544366939 1000.83756508601)
(-725.94074285011 -150.060931848242 53.982828945262)
(723.350310083651 878.906346502697 291.02961903119)
(33.0443708221539 -658.647199545015 805.824187918034)
(299.659021981295 1456.14320716287 -1235.86470020502)
(-95.0124305382322 -580.55060262244 -478.741997657769)
(-429.548750800372 930.9914835122 129.786877419803)
(-133.359193671508 265.647315167093 -112.078249822785)
(-370.505052506665 689.67599180705 -601.822240857735)
(456.230154901239 19.6259009111031 246.594216885119)
(-236.212295874239 118.868976096868 -36.696007930087)
(-334.081494740365 685.274799291494 -541.620218728928)
(744.70912281284 401.599798418252 475.984945762516)
(717.101062062631 -380.32074982198 -550.685220711619)
(-633.781947733626 -71.8849074757416 384.662376779608)
(305.161594539845 -76.1165395987581 410.600610278828)
(-1626.67291621608 166.459191174031 322.002373649823)
(-858.921954548073 14.8427090135906 327.348968312513)
(41.1470379770548 208.16017973262 278.08353681497)
(721.682161182651 -280.732230086435 -149.677694944458)
(-870.242652186114 -53.6134799710165 542.710550889428)
(-821.481987340142 -466.949997070933 -702.766533050876)
(1640.25940044015 -632.56091821948 719.924436117854)
(-560.414948599864 685.297927709461 -755.324263748313)
(470.016294958303 -1022.52906207927 -108.918456011906)
(-478.608277006833 404.807384059153 1091.81118764598)
(-129.555138879189 -274.552134000917 640.422879095985)
(132.884449656818 144.568720677911 -1551.99758758552)
(176.977635790493 -480.634249046006 -458.589689662464)
(491.644218410321 710.263397006395 -1174.46844721776)
(316.222841602917 -84.2772638719925 673.724155175494)
(-612.655699507774 1236.51321432822 488.30621051742)
(-113.11443045909 -94.793975116723 1389.86459386024)
(-36.3459687050195 -289.345083776742 588.805311704572)
(-727.59869908561 5.91167662860144 -1008.16551844778)
(-549.588676577853 -2104.71359977037 314.473746792557)
(265.149971784397 -182.977855440911 670.536339951818)
(57.2959487345441 292.161896572336 -666.386858436714)
(-584.262740965918 -439.162680470515 409.123675260504)
(872.997754840301 -1211.31506346512 975.088581805498)
(-395.284409102239 -540.569706199726 -100.34117243417)
(-911.738868740962 -451.380524344151 -553.722434611292)
(1032.24219500298 -501.41611731714 559.401003625028)
(-334.182193869008 -429.07493718638 923.940682737931)
(-690.791372993085 703.471331424584 200.891574061167)
(52.5644555996547 122.567163259463 -150.702476137853)
(529.053818751424 1013.78835576576 123.599042834256)
(162.385148795018 206.810231794804 -423.702791787646)
(249.718045417576 539.672278944932 -491.167373548905)
(-634.165199576665 -296.420943967861 140.860170809549)
(1124.02314481191 -153.440560065333 -261.831503177454)
(1403.62418316881 898.659152225595 -67.6167964827448)
(1477.398061719 -86.72180020035 248.858586266185)
(738.774270294325 -297.152775672875 56.3957412074442)
(216.263286377189 -344.37754605454 655.862711699403)
(-491.74858974927 864.288776573434 -1087.84937053604)
(897.844326564611 907.770063461732 950.299177973355)
(-217.404261786788 -117.199734798116 60.6475618181893)
(233.176917699313 433.891108857355 645.335204588955)
(-633.255562632366 -660.089983572189 -265.049651304479)
(-27.6735532351022 944.611778971513 1085.86938224372)
(-578.47972248782 791.459360825975 -321.324484396745)
(1232.01598328973 -138.856901335907 714.34157107425)
(-798.520401674642 -271.792486491234 -1384.12574411272)
(1334.3200262364 -638.226704951877 -90.4042042747098)
(-120.788451392262 359.762145678826 -275.426073452869)
(-122.698104321953 29.5566419975093 -673.329406974423)
(-143.846153762472 -192.585195206796 -1896.08142420684)
(-372.334735905406 -227.149938992871 -816.972459921326)
(-469.433434972281 -119.78428690623 1090.29353678571)
(578.156126991061 -411.728918573363 -193.3721973893)
(1019.63962039631 1110.98342846376 1044.92933541604)
(735.795947554431 -153.328547664722 939.545336132268)
(-275.7454005799 -345.735851047493 -2570.59195297256)
(-242.688220379618 -237.048761780345 -563.672079297579)
(-548.035388693633 -21.4566038109754 901.441477898757)
(-726.633247311963 -657.172415022048 -1070.7669300839)
(-236.561240417969 -767.546551382363 -83.1248397142634)
(390.549804950148 24.2567720792513 -735.530016072899)
(742.312946741454 63.5000728323699 -118.79167936393)
(-814.143388316872 1300.27972641221 1022.98553687132)
(-1285.25386543351 375.943075346053 -485.219603307874)
(-723.528225898936 -288.166719958051 -624.498802620715)
(-1532.55486878852 -84.1078500494124 782.355990852894)
(-298.101626959362 -34.0244863395118 140.147416944359)
(1040.48928273407 1744.90908591789 -562.189096030488)
(648.587139281187 -117.001735222299 588.33872598843)
(-87.5661470983381 -240.651721895377 -1466.13129528458)
(-223.237795925756 -211.30019509087 -335.029682104878)
(-855.57986409383 -1092.4216554675 290.324355860604)
(-522.942511169194 455.225878580028 114.556050205687)
(979.389343901752 -149.880337679471 -29.9568742961561)
(549.404599024531 235.392985577655 619.70075439658)
(180.575753337316 197.999885749769 -428.195798240389)
(-986.263358014974 58.2177686352297 1272.23422154149)
(481.411964973287 21.6245079444364 -328.106080876209)
(-586.990898755496 961.986672595727 -273.722916815134)
(-45.131614658236 -337.585665111153 313.280911053876)
(-690.606561412251 224.301540910017 62.3605532043042)
(-790.653678422381 318.982004600103 -131.136574717605)
(848.799297982267 1479.03579918927 -291.694280663954)
(573.299297395313 -839.152331684698 1264.01169915084)
(674.646325377165 514.894731372572 886.957472434012)
(-464.375828011892 318.122604621208 -156.807527235204)
(224.545065507598 920.628127738059 524.620051401646)
(-439.71703559428 517.748884200896 724.404141006248)
(-738.995142150308 -946.157492961123 1219.35890154896)
(233.510185709294 511.961687208072 513.891226321527)
(465.961174767317 -207.933122593899 532.710881408091)
(184.428305103381 -1715.61142651982 -1154.22895698696)
(87.6206611897301 -133.476810349968 110.982089975324)
(-375.697448615442 755.080289780723 -1241.18383454082)
(317.799159159822 424.467145875119 -844.67572579913)
(-63.8726135080061 623.345564825735 190.162917865092)
(479.299540195697 21.6688076641971 -498.495968459514)
(797.319683410399 752.463613609916 406.86996137581)
(-64.8556600500136 -762.071465359474 -557.800611348885)
(-1162.26899795831 -421.443756416068 963.673163147893)
(-453.649198858416 361.344577003346 996.092687263479)
(-294.615529861463 -268.608669285922 -889.041352667939)
(772.941827509013 -770.583051670378 -61.9106162114266)
(-98.1628431874239 -139.792345715069 568.7129243165)
(185.256669843741 -498.286439215003 -849.551100386521)
(-593.539854649699 -478.471763358178 157.052576076465)
(555.724398504325 -348.236169391418 -699.697300387458)
(-963.778531055212 -15.0756998599027 -920.242067865109)
(85.0635851036844 10.6498962398818 992.443312069266)
(232.208546712294 -220.93065645736 -1127.13509507523)
(298.633940840653 -1284.13404645651 -302.049874976446)
(452.506273039941 -236.752444508858 -688.19578005654)
(-785.477067251231 47.0187460578612 1144.66580956836)
(-42.3447202114817 -510.216854053347 -292.738615713113)
(444.584584387018 279.985111772153 265.8049553764)
(-915.500700998596 1141.6016518524 -421.426724557522)
(-145.921246368372 -219.723234677525 -722.45634100232)
(-574.872999372906 253.836737686466 -353.903953950456)
(230.10517825079 1728.56494739289 612.094968149735)
(-227.896227256936 1057.15610379455 -468.216441785789)
(1151.07380403238 -258.662669149617 714.301025007929)
(617.635272776072 -1026.44300341958 727.241948350165)
(-129.385605568082 1077.51109499177 897.752543561594)
(799.96640345284 896.844631995603 69.2039799490335)
(-226.614622173083 -1280.60858082638 -457.077179605974)
(899.986608524886 -453.924579653093 -45.9562186374047)
(-1049.41851991945 409.805721191082 18.5988423940421)
(573.840001025522 -120.319154836164 620.774545870141)
(-492.12435863303 425.964394929315 931.359139291086)
(-866.49701372007 1305.94451759537 -143.21013164777)
(-360.165554644216 -220.091456462287 -592.423412347941)
(92.2224920690616 816.349875576863 -924.132259758418)
(-354.820003909105 -385.296191911343 324.437211094416)
(-559.935655702401 188.02747916543 99.651738592915)
(-853.426582272104 185.304637556702 217.205017489929)
(103.187096851643 128.306523138781 -540.08933400184)
(340.873150121491 -251.140251380585 -735.344380954466)
(-1593.64421886691 23.1118099009414 403.112905061832)
(1025.22501988902 285.909033449922 590.439627603095)
(-1567.72465368009 299.681384926676 -1497.09575840285)
(-420.13233482388 -64.9300290226872 -276.177965066748)
(-686.984840135006 586.934508711189 -115.303583293637)
(578.200408874717 253.028998915722 -522.451348162645)
(-757.544816361662 -376.028793239231 -864.773781185086)
(-313.393745111793 -197.457789432175 1033.57508513052)
(-916.585701644862 1676.41879770087 282.540686269137)
(-242.56240873745 643.847190644184 -605.3953521472)
(-1127.19253125545 -512.133680066756 771.455237501968)
(-209.342585873102 -507.557417491733 -483.560571135111)
(743.508270674637 408.880140974271 -687.287071132473)
(-1906.91104006817 163.199625776846 1079.06021674972)
(-569.748234553766 540.842565848238 -457.218867064317)
(-343.428456162045 -694.772157022028 -391.927906521158)
(782.142521337383 526.22599706396 -1475.17922662628)
(271.392244681819 22.6289058854567 -475.395604370967)
(165.314244059743 73.1837018664011 -147.917153417223)
(-134.666206501074 530.949063564257 -546.641439859284)
(-622.206791779151 -907.143666187519 -913.882182409157)
(178.819028083138 416.532346984685 1233.66335193465)
(366.101765714586 -322.235891921357 -387.396326089324)
(-686.679758601009 -413.187764124428 -1139.8958021245)
(1556.96304935484 962.862662578901 5.39964307259616)
(1003.29468420893 -50.3549897837491 1257.34413446751)
(19.4257709173855 -481.622338087026 -225.079504952453)
(1350.68845800776 449.510708074123 -208.517778888722)
(838.414586301605 888.68526329143 -787.202341414647)
(-348.381673838129 -491.596884057934 408.342535001684)
(-296.16490597662 -1325.63174758919 -65.833007628907)
(-504.683736971525 507.911396291112 -15.2733849801723)
(337.237808394749 401.906274106043 -349.905713611345)
(-637.586563890309 960.84414587665 -1238.16524253759)
(-243.257407812502 -979.914931512198 305.227033283917)
(241.262129102942 960.023695265949 -210.257882077694)
(232.589194103219 -521.509144218276 433.134577039391)
(-103.157600361725 -293.121461546693 -268.606999585875)
(-191.939323251244 -210.456630867816 -421.607439321921)
(168.980653773338 751.691801893446 31.6222184835468)
(669.885652651621 -34.1841313527025 189.286845573851)
(244.444553270059 -398.729123466625 -6.31253133572234)
(79.4479375449651 -1024.88631142353 -783.066415559758)
(362.805002251811 179.373761886834 356.836092837708)
(-533.563076616453 1146.66982157179 146.793319911957)
(-1170.85278106946 -125.713897403255 -400.835025900848)
(-100.069537433458 1009.56511683885 905.272620844844)
(-682.849791042206 -346.423467179071 304.410861910177)
(-311.547232414684 181.28027087926 -834.307421116719)
(13.6474921593455 -440.779060080135 -373.391805410008)
(-674.900574809084 -1229.3768799917 -1624.12201352565)
(351.673877993964 642.340679209486 907.897896525484)
(1124.88243776256 -32.3303699132935 515.821717459529)
(594.73330299802 791.098843911123 -51.8365099827774)
(216.055698573354 258.725647823997 -45.9174957299986)
(-38.3985139935723 -746.667315057958 -203.649012295537)
(-8.48254826527996 557.590286928408 151.31182281643)
(79.7192996207217 -216.892639566423 -366.078355705133)
(10.670248992584 77.5585927084309 -1197.40174438584)
(29.9478739319108 -89.1203737099867 -823.39754601665)
(482.643067657678 145.739384800387 156.860596107269)
(1019.77170007394 590.814002267973 279.538594032307)
(1099.71412741691 367.947286853785 -74.1121141914009)
(-421.308451410955 -182.725078576711 -815.981323000375)
(-254.089580008294 76.4465084588288 -773.806624695974)
(604.105843462596 625.995038465449 365.481537645508)
(300.167652873549 583.89507945143 -1979.04516270851)
(642.910019281838 382.905897306906 -679.010202361695)
(-192.775730003531 319.918645945838 595.975198308562)
(363.464812618994 -212.842107089844 -437.564418778564)
(-88.732703088392 226.428618424215 566.460500865278)
(-440.62365291767 -25.3049417598194 -71.1360823132987)
(-917.210035362678 259.958931177261 -249.281810234287)
(-9.50805183671657 815.947710260468 -222.199308590232)
(-72.3351954702024 280.44910638627 899.24661465107)
(-258.651062032924 1260.71743798845 248.545394345308)
(1007.17694732593 -81.6378952336588 -140.705498525169)
(-97.9858668872834 -117.025778660102 256.991248166158)
(-373.661387618676 -154.185036734998 475.54216193408)
(-612.725793914528 494.516907909488 5.94237365074579)
(92.2899520197621 1429.67099057816 46.4947419450336)
(-259.204669954086 -979.077053316806 35.9192450913667)
(101.28855658626 702.695465706652 -456.329547457068)
(422.217567755667 -413.797978641439 526.867218076528)
(-412.063106363193 -1112.8817872616 -20.0039131611296)
(-276.850482204409 -1083.56802900355 -288.77228191224)
(-161.732923775088 -196.726097240706 -6.16737270846223)
(-547.085210392418 -838.31124731864 771.25193463685)
(-281.92084673432 -713.96832842255 464.089463105159)
(18.5061305592216 406.769285115598 331.059308716874)
(-199.182749390129 369.458143466986 578.125702624147)
(-683.189256550304 735.203861552425 -721.772619816876)
(-1232.30159217685 -773.423675485402 482.741026093895)
(44.3428021238846 189.681605548967 -441.202418452963)
(52.4992604995375 -490.625236606571 -775.749613250601)
(389.805894470007 379.762344739069 -161.764378037354)
(637.940457180541 -783.032182911493 93.338847290007)
(-14.6744937547307 191.759113871106 -18.2336318350706)
(-804.205350551662 -189.979089465322 -67.7090591422455)
(2365.59786537509 530.985971725474 -636.396123546798)
(-446.493640175691 -317.986551728549 -57.4834240160473)
(-1434.51006135668 -424.951821710042 711.598981316477)
(-626.378887830331 -52.3537514246605 20.8694118779517)
(129.247012246011 -368.027727536067 950.414668621619)
(-496.372091372924 197.219681906702 319.135200677034)
(-670.927574323437 667.815665316947 31.114512710783)
(-106.006208341813 -811.997306442985 -471.202560299906)
(-136.274806825689 -408.288658766657 -183.765852239441)
(789.836153320379 294.483400091776 -387.577143602249)
(387.492977300199 209.978352444836 -796.64246411974)
(-484.74254243727 148.214762387678 -128.803016005001)
(-912.992616572903 1267.70161812699 236.412198550691)
(752.985624819959 -943.156657904731 -1164.07138239646)
(1266.52386129076 1123.87572645307 -346.448031145576)
(1646.88298184952 -717.670916473646 -172.032832750197)
(1095.58477512886 224.764659926563 354.318237270344)
(-144.679719708343 972.215332684306 -37.0507066522459)
(877.480503491901 -115.378554745153 841.874525910707)
(469.634619191303 -492.614481517884 439.352250559534)
(550.554706036708 927.531679769853 -711.73338462151)
(874.848238530851 307.528182325395 -858.965885376647)
(-79.4876868421411 968.370223839425 -890.221940143113)
(-409.457301460313 936.373377409773 402.399688614525)
(1381.38141835618 643.541779112591 -501.789596862952)
(551.762679787077 -639.85930513847 -187.929587506864)
(-708.565185281118 -147.152151619601 -707.337788136622)
(-471.855344684129 1019.97477858541 691.211375102541)
(-1082.15708344185 835.627631941628 800.578123197863)
(-23.0590804529204 366.824126072101 279.804999609738)
(-304.453133107418 154.3062645205 2063.1511046208)
(-1423.67109476349 664.013887132601 -1092.26280768118)
(-1921.71190069845 809.88012772091 421.38133731736)
(255.712730036534 1091.22225013824 872.622765884565)
(-850.34252685751 9.14870535438619 -204.071862395259)
(463.676345344162 3.91157347563699 892.010595685836)
(-145.197401982176 -158.69928908298 209.419007705733)
(74.4702102776712 327.856856256503 39.1358443831787)
(513.410610027285 35.4518596851165 -946.669746978683)
(1124.36471586048 18.9884536096263 567.622927061228)
(-644.622063675966 -1331.58327613593 390.610264553862)
(-215.843628025217 489.187391501611 -746.788035146143)
(-520.238901899123 -559.675020889931 -656.656888599318)
(723.794285306783 -236.920689620085 32.283285920847)
(226.120410836011 362.672346169509 137.240376396302)
(-1201.84207692739 -11.3245404188365 307.652183162285)
(134.395069021644 145.232511167227 -809.291260275845)
(-76.0721685630881 -520.484301670307 970.7516583688)
(1205.49216184684 1312.51755729761 -1872.47325009943)
(767.529430291237 -73.2641787543607 -328.503671175654)
(597.658273368919 -362.399014320164 -1343.14801235113)
(-45.8107497654287 462.554587394098 -1145.41927724969)
(754.405782823125 -881.909817111495 -288.915593670985)
(-809.021168916658 200.007239276509 369.486986201455)
(-22.6339380741868 1448.44887999279 66.761440166434)
(285.809492364807 -67.8538290373862 -655.070188640446)
(-971.716010928242 329.722615220162 22.9319703526019)
(398.771878021272 281.650493419033 344.518115512887)
(-164.832705756078 749.600193878987 453.013352088601)
(709.233026188646 -385.915413532835 -560.891253337249)
(1236.65960581484 874.221900315061 215.31552872822)
(973.135124745157 -114.766461047829 725.625248674726)
(914.66087447354 -152.534685070945 408.173297735914)
(388.061078011386 569.128119317724 -438.774053006503)
(-440.786280336016 -735.996314437445 -207.800718124223)
(427.191403846848 202.028175533623 468.642566315855)
(32.6861006930336 -858.899545584225 283.698475230395)
(299.105459803844 -308.712538317263 -418.211908750907)
(-121.332229290165 -535.409560563721 -480.146271364237)
(440.703503884543 -185.395506898837 203.408972704234)
(-71.2558731373895 -367.167988502734 -122.975723333959)
(-1233.08230615719 -453.652856663022 869.084254592126)
(-222.638750499626 908.006169038819 329.824145296178)
(141.842981970181 1500.11717312209 -316.594236448301)
(-226.088289261035 -413.211797768128 -415.181540889887)
(-376.121594806906 -404.096107687233 112.924978422719)
(-699.607079822665 -400.441120451114 876.238207084185)
(400.62847556969 322.982057143684 140.71638153212)
(-302.745670647956 277.299209698515 1485.61427115975)
(-451.725061842355 560.563939713797 205.59391105256)
(398.982635344646 -574.680808488878 459.231663122731)
(-629.039953612833 -1110.371927373 721.192237504244)
(159.103540748212 -757.741349665223 123.88952418547)
(522.35284930385 -284.65599710272 -254.480538183455)
(145.359465234294 748.722148100605 -518.657346999846)
(944.10284196834 151.28571896253 -337.283075137002)
(1147.26739203674 1058.3615855683 -137.0293973305)
(-498.486168513736 -194.067382156119 -825.968283282026)
(673.646495772836 -696.223787484739 -33.3707855395248)
(-808.858865473825 -227.56846510418 533.028337786837)
(-1101.37061155262 137.098340323986 5.98612304569134)
(-369.451730639683 275.880461873518 344.382126460461)
(827.97617850825 256.17032639652 453.884426468109)
(305.943710118626 99.0510270974311 -230.755682227312)
(-241.162285122034 760.720151163942 -288.753203673871)
(180.574871790206 463.975735267419 915.281331605719)
(223.790633933529 -103.682685726074 738.262636305188)
(-727.317801205329 1136.38156263884 -847.340888904465)
(-486.079236401205 687.316159667654 1015.51387585454)
(192.662659556048 -838.295053992927 280.911560811036)
(745.95042574587 999.685408567915 -26.2958056708704)
(243.125746901604 526.039865434468 278.438690024692)
(-1056.8073764386 400.905398367704 -495.432025943839)
(37.8576434384782 -105.212437399728 -128.563279354829)
(-47.757629486276 8.99626997113272 600.957450684336)
(-1474.07764863588 540.295490425208 -275.618988798243)
(-370.751614267347 -1.91844763394506 838.394347914871)
(294.186508825809 326.361880477345 765.204722521345)
(721.911267564128 169.871692519434 1035.32460077601)
(97.4762752097176 -483.853216948948 1197.56449697011)
(1038.86174031002 2137.16521037938 446.533517569495)
(-341.189961314936 -553.961927535581 -111.346259266635)
(-1125.10940122524 -15.8899736836364 358.469452251769)
(1029.66452356838 302.138616811826 894.778257490552)
(41.3529799157499 225.730909432136 1084.53745734893)
(-589.737485357891 -172.33807144306 -989.900614634783)
(57.3005331961577 -558.886326124603 460.357316194114)
(1222.41208276867 163.401072144229 164.970655563471)
(-201.21422590785 232.659201285326 426.893516996049)
(-906.623264261029 1005.49290355929 -418.029224998365)
(-138.181492989927 -1271.7500879301 333.69734795776)
(84.3341487436889 813.090490717208 1166.47276116181)
(12.4772827428589 395.99410004279 -59.9300483634017)
(519.958906956426 1163.80986474531 -362.175860643109)
(-173.108062398015 932.05199570245 -671.400126296556)
(-618.017236560894 252.55671776037 -356.359120196455)
(316.975317861531 621.650379498621 193.048471362164)
(753.666679653193 503.422668739516 -456.847701159889)
(-318.969782378579 549.45198856743 546.110541398936)
(998.018078424356 -63.2847729820228 215.519050090963)
(86.2473223911082 -191.92505238096 -154.747852649821)
(666.494106009808 -789.727185665467 1075.64754001573)
(-66.76993549513 651.541534263318 -1219.24644938245)
(0.525293984312865 -848.302762014673 550.330331246536)
(-595.757779972352 451.102261905865 -180.400012168773)
(676.18345410435 1305.41350820773 -780.337002857822)
(474.531207995744 301.831542359988 -25.0561288461351)
(-589.17512231204 369.622973536069 -127.380009087455)
(263.102319631093 393.825849782804 204.35760499175)
(253.87256877635 -853.866753942483 -401.526762803411)
(521.714488846453 -373.478826673105 1371.11017876649)
(-1438.13617384953 -376.968671901703 -123.099154437323)
(-599.583834982715 535.776236150935 -152.46225267128)
(969.223626520643 -216.898614518396 226.105635394206)
(1306.92387157576 -1016.16851961226 -481.048262776628)
(-28.4524964211404 -880.918764072996 -643.785556325326)
(212.649525339792 -550.549538809456 -601.019817821456)
(-244.370641394154 358.036179187488 386.365523098911)
(246.167608683724 1142.95868964858 -462.74311281598)
(836.661218069368 -694.944232886619 -373.7581165688)
(176.241760952908 -702.873646253263 -447.958110894455)
(-176.962745914952 -71.3940494651706 768.368546988765)
(403.621076761156 187.441452943902 785.549098450176)
(285.608220035064 623.487276370648 -818.733597934092)
(291.783554852665 56.8636421466737 117.347112710331)
(-582.047925360184 966.801880513704 -191.486584620795)
(-140.215425408444 -35.8314848550301 -133.573816520213)
(486.446499296838 867.351247324224 330.113380283718)
(-1111.45752873635 -918.945683677692 -987.393086808113)
(-134.616662915105 -559.719474551224 1335.02551937054)
(186.362585247401 773.597161084257 55.042521772623)
(493.346856442154 463.30087929912 269.252421481947)
(-641.889487585626 1.21688397732097 457.715269661193)
(67.6726793614516 218.562641179176 -20.7748709443662)
(997.356329394053 -116.088316113626 -842.468995723703)
(-791.893507710298 612.378048377217 70.5926884843054)
(625.620631497249 -277.90849434013 496.936052198643)
(935.509299350536 675.782214116807 127.210606811165)
(-91.4793932461214 -355.176425559008 -467.228274038909)
(754.544479785538 400.104679635455 115.498772357148)
(-495.935702651979 812.973926735292 223.554187203049)
(122.219459329151 -630.928281855961 30.2177313171485)
(589.876947895398 -471.997587048156 -161.867003000703)
(915.872275559158 -569.705856415392 227.213407678304)
(-84.6633075109221 -299.951240010395 499.412574175965)
(358.922601400872 -549.897009211096 -124.535155297361)
(-122.160800621474 848.928789279243 -417.336312718393)
(-710.681628393356 -1199.84186531221 -639.574926400839)
(-355.126719893128 -172.238875918335 421.891813643834)
(-924.681400847166 225.485362366153 643.23128116462)
(-811.131204313029 557.322694688259 500.826003973287)
(1490.76129286464 963.232290680197 405.334344725997)
(-448.094009908305 103.012862194844 -110.766720999071)
(20.989261171567 -1001.98632418373 -274.390353428298)
(-789.917483656576 -557.807933199161 -1139.23658641397)
(-1539.91153334952 490.891948201264 -965.832537542266)
(309.845481040381 105.307998944945 -104.244129985369)
(-849.92237855125 1340.74583539201 1102.31898956142)
(218.266100999563 -20.9028147755734 -96.9206306477908)
(-3.12033629237913 804.531935777959 -244.215881240766)