/*--------------------------------*- C++ -*----------------------------------*\
| =========                 |                                                 |
| \\      /  F ield         | OpenFOAM: The Open Source CFD Toolbox           |
|  \\    /   O peration     | Version:  2.3.0                                 |
|   \\  /    A nd           | Web:      www.OpenFOAM.org                      |
|    \\/     M anipulation  |                                                 |
\*---------------------------------------------------------------------------*/
FoamFile
{
    version     2.0;
    format      ascii;
    class       dictionary;
    object      initialConditions;
}

// * * * * * * * * * * * * * * * * * * * * * * * * * * * * * * * * * * * * * //

Ttr       52.0;
Twall     300.0;

pressureInlet  75.0;
pressureField  $pressureInlet;

rhoInlet       5.024499e-03;

velocityInlet  1386.2;
velocityField  (0 0 0);
velocityWall   (0 0 0);

Y_Air      1.0;

// * * * * * * * * * * * * * * * * * * * * * * * * * * * * * * * * * * * * * //
