/*--------------------------------*- C++ -*----------------------------------*\
| =========                 |                                                 |
| \\      /  F ield         | OpenFOAM: The Open Source CFD Toolbox           |
|  \\    /   O peration     | Version:  combo                                 |
|   \\  /    A nd           | Web:      www.OpenFOAM.org                      |
|    \\/     M anipulation  |                                                 |
\*---------------------------------------------------------------------------*/
FoamFile
{
    version     2.0;
    format      ascii;
    class       polyTopoChanger;
    location    "constant/polyMesh";
    object      meshModifiers;
}
// * * * * * * * * * * * * * * * * * * * * * * * * * * * * * * * * * * * * * //

1
(
couple
{
    type perfectInterface;
    active true;
    faceZoneName e0010w0011CutFaceZone;
    masterPatchName e0010;
    slavePatchName w0011;
}
)

// ************************************************************************* //
