/*---------------------------------------------------------------------------*\
| =========                 |                                                 |
| \\      /  F ield         | OpenFOAM: The Open Source CFD Toolbox           |
|  \\    /   O peration     | Version:  1.3                                   |
|   \\  /    A nd           | Web:      http://www.openfoam.org               |
|    \\/     M anipulation  |                                                 |
\*---------------------------------------------------------------------------*/
FoamFile
{
    version     2.0;
    format      ascii;
    class       dictionary;
    location    "system";
    object      boundariesDict;
}
// * * * * * * * * * * * * * * * * * * * * * * * * * * * * * * * * * * * * * //

dsmcPatchBoundaries
(
     boundary
     {
         patchBoundaryProperties
         {
             patchName         top;
         }
 
         boundaryModel   dsmcSpecularWallPatch;
 
         dsmcSpecularWallPatchProperties{}
     }
     
     boundary
     {
         patchBoundaryProperties
         {
             patchName         bottom;
         }
 
         boundaryModel   dsmcSpecularWallPatch;
 
         dsmcSpecularWallPatchProperties{}
     }
     
     boundary
     {
         patchBoundaryProperties
         {
             patchName         inlet;
         }
 
         boundaryModel   dsmcSpecularWallPatch;
 
         dsmcSpecularWallPatchProperties{}
     }
     
     boundary
     {
         patchBoundaryProperties
         {
             patchName         outlet;
         }
 
         boundaryModel   dsmcSpecularWallPatch;
 
         dsmcSpecularWallPatchProperties{}
     }
     
     boundary
     {
         patchBoundaryProperties
         {
             patchName         front;
         }
 
         boundaryModel   dsmcSpecularWallPatch;
 
         dsmcSpecularWallPatchProperties{}
     }
     
     boundary
     {
         patchBoundaryProperties
         {
             patchName         back;
         }
 
         boundaryModel   dsmcSpecularWallPatch;
 
         dsmcSpecularWallPatchProperties{}
     }
);

dsmcCyclicBoundaries
(

);

dsmcGeneralBoundaries
(
);

// ************************************************************************* //
