/*--------------------------------*- C++ -*----------------------------------*\
| =========                 |                                                 |
| \\      /  F ield         | OpenFOAM: The Open Source CFD Toolbox           |
|  \\    /   O peration     | Version:  v1706                                 |
|   \\  /    A nd           | Web:      www.OpenFOAM.com                      |
|    \\/     M anipulation  |                                                 |
\*---------------------------------------------------------------------------*/
FoamFile
{
    version     2.0;
    format      ascii;
    class       polyBoundaryMesh;
    location    "constant/polyMesh";
    object      boundary;
}
// * * * * * * * * * * * * * * * * * * * * * * * * * * * * * * * * * * * * * //

3
(
    plate
    {
        type            wall;
        inGroups        1(wall);
        nFaces          95;
        startFace       11840;
    }
    inlet
    {
        type            patch;
        nFaces          225;
        startFace       11935;
    }
    defaultFaces
    {
        type            wall;
        inGroups        1(wall);
        nFaces          12000;
        startFace       12160;
    }
)

// ************************************************************************* //
