/*--------------------------------*- C++ -*----------------------------------*\
| =========                 |                                                 |
| \\      /  F ield         | OpenFOAM: The Open Source CFD Toolbox           |
|  \\    /   O peration     | Version:  v1706                                 |
|   \\  /    A nd           | Web:      www.OpenFOAM.com                      |
|    \\/     M anipulation  |                                                 |
\*---------------------------------------------------------------------------*/
FoamFile
{
    version     2.0;
    format      ascii;
    class       polyBoundaryMesh;
    location    "constant/polyMesh";
    object      boundary;
}
// * * * * * * * * * * * * * * * * * * * * * * * * * * * * * * * * * * * * * //

6
(
    Inlet
    {
        type            patch;
        nFaces          128;
        startFace       32512;
    }
    periodic_1
    {
        type            cyclic;
        inGroups        1(cyclic);
        nFaces          128;
        startFace       32640;
        matchTolerance  0.0001;
        transform       unknown;
        neighbourPatch  periodic_2;
    }
    periodic_2
    {
        type            cyclic;
        inGroups        1(cyclic);
        nFaces          128;
        startFace       32768;
        matchTolerance  0.0001;
        transform       unknown;
        neighbourPatch  periodic_1;
    }
    Wall
    {
        type            wall;
        inGroups        1(wall);
        nFaces          128;
        startFace       32896;
    }
    front
    {
        type            empty;
        inGroups        1(empty);
        nFaces          16384;
        startFace       33024;
    }
    back
    {
        type            empty;
        inGroups        1(empty);
        nFaces          16384;
        startFace       49408;
    }
)

// ************************************************************************* //
