/*--------------------------------*- C++ -*----------------------------------*\
| =========                 |                                                 |
| \\      /  F ield         | OpenFOAM: The Open Source CFD Toolbox           |
|  \\    /   O peration     | Version:  v1706                                 |
|   \\  /    A nd           | Web:      www.OpenFOAM.com                      |
|    \\/     M anipulation  |                                                 |
\*---------------------------------------------------------------------------*/
FoamFile
{
    version     2.0;
    format      ascii;
    class       dictionary;
    location    "7.9999999999/uniform";
    object      volFieldsMethod_mixture;
}
// * * * * * * * * * * * * * * * * * * * * * * * * * * * * * * * * * * * * * //

rhoNMean        250 ( 46980035 46977466 46961494 46980218 46974209 46826754 46832875 46827523 46829511 46819893 46668792 46680448 46673608 46688743 46683498 46537343 46559308 46541827 46535744 46542327 46391707 46397289 46399728 46394946 46393420 46252453 46251032 46248394 46246419 46247789 46102959 46110478 46106898 46116871 46127205 45963857 45961664 45971453 45969393 45964163 45828943 45836089 45829365 45819902 45815639 45689163 45703508 45678468 45682421 45697062 45548212 45566548 45554576 45555050 45552747 45413900 45424137 45436017 45433190 45426697 45286264 45289478 45290014 45286429 45282900 45149985 45140230 45145737 45149820 45151750 45033180 45028864 45012879 45025860 45020855 44903091 44897487 44872705 44890780 44892651 44755069 44770432 44762040 44761273 44757351 44630201 44637205 44653715 44639963 44637461 44507304 44503756 44515696 44528382 44527821 44390234 44380742 44394148 44386020 44388611 44258555 44260555 44262850 44267109 44262980 44129288 44149846 44130008 44148115 44155605 44011462 44011128 44025443 44029777 44017846 43884861 43903803 43889370 43904165 43904869 43770885 43763112 43765139 43793118 43772901 43652341 43656038 43645574 43645508 43666057 43535614 43545552 43532195 43536854 43537852 43409866 43424659 43406690 43412734 43414931 43310948 43302251 43302903 43297775 43307157 43183260 43187487 43180913 43187141 43180527 43064252 43059086 43053926 43060068 43069000 42944322 42940651 42958827 42951579 42940786 42820859 42829883 42826894 42827659 42827986 42703293 42716691 42705858 42717560 42703995 42608720 42599683 42610649 42587995 42596049 42493934 42494362 42493094 42484969 42496221 42381706 42370251 42371105 42367443 42372164 42254063 42275885 42260290 42267438 42239150 42157335 42162612 42157644 42164651 42131825 42044624 42039343 42036767 42035885 42033432 41937131 41918285 41920712 41926792 41931062 41811361 41808235 41808826 41824229 41811887 41694417 41705706 41696563 41694112 41699813 41583542 41592959 41585713 41579196 41587396 41473622 41477054 41480109 41483409 41480756 41363860 41356992 41366004 41365897 41369338 41226180 41237226 41233051 41227706 41243330 41107163 41104676 41100830 41109992 41113515 40963347 40972632 40975626 40970555 40991210 40799962 40814758 40810788 40816135 40805738 );

rhoMMean        250 ( 2.249834157e-18 2.249760515e-18 2.248980481e-18 2.249867915e-18 2.249546837e-18 2.242518251e-18 2.242773081e-18 2.242576822e-18 2.242651225e-18 2.24221454e-18 2.23497661e-18 2.235524538e-18 2.23519345e-18 2.235879711e-18 2.235645285e-18 2.228656767e-18 2.229707618e-18 2.228836727e-18 2.228528917e-18 2.22888181e-18 2.221640627e-18 2.221901507e-18 2.222024275e-18 2.22182489e-18 2.221738744e-18 2.21500966e-18 2.214871624e-18 2.214764679e-18 2.214704955e-18 2.214787018e-18 2.207834936e-18 2.208188038e-18 2.208025507e-18 2.208459581e-18 2.209005094e-18 2.201174554e-18 2.201053421e-18 2.201532402e-18 2.201433242e-18 2.201204327e-18 2.19470334e-18 2.195056793e-18 2.194729695e-18 2.194292274e-18 2.194074946e-18 2.188004844e-18 2.188692263e-18 2.18746823e-18 2.187640678e-18 2.188384884e-18 2.18124868e-18 2.182135906e-18 2.181589496e-18 2.181598886e-18 2.181458087e-18 2.174832607e-18 2.175302471e-18 2.175896054e-18 2.175752041e-18 2.175462277e-18 2.168711644e-18 2.168871263e-18 2.168880405e-18 2.168698874e-18 2.168541779e-18 2.162160043e-18 2.161722562e-18 2.161962948e-18 2.162154112e-18 2.162271594e-18 2.15657069e-18 2.156408452e-18 2.155590675e-18 2.156222856e-18 2.155988926e-18 2.150350001e-18 2.150052932e-18 2.148902297e-18 2.14978467e-18 2.14982171e-18 2.143235656e-18 2.143977296e-18 2.143597965e-18 2.143567509e-18 2.143382488e-18 2.137258465e-18 2.137593816e-18 2.138405633e-18 2.137706168e-18 2.137627135e-18 2.131367629e-18 2.131222553e-18 2.131788613e-18 2.132389753e-18 2.13236983e-18 2.125793036e-18 2.125341298e-18 2.125940832e-18 2.125592292e-18 2.125692113e-18 2.119507448e-18 2.119574061e-18 2.119675827e-18 2.119873698e-18 2.119707246e-18 2.113288287e-18 2.114269139e-18 2.113300848e-18 2.114210109e-18 2.114541864e-18 2.107660488e-18 2.107629652e-18 2.108320627e-18 2.108525521e-18 2.107990682e-18 2.101589221e-18 2.102493022e-18 2.101839735e-18 2.102517951e-18 2.102569263e-18 2.09608554e-18 2.095752668e-18 2.095864996e-18 2.097207441e-18 2.096221149e-18 2.090406996e-18 2.090568103e-18 2.090118413e-18 2.090135012e-18 2.091107621e-18 2.084847896e-18 2.085288717e-18 2.084650702e-18 2.084847333e-18 2.084960649e-18 2.078826694e-18 2.079488498e-18 2.078652874e-18 2.078961068e-18 2.079076555e-18 2.074036331e-18 2.073654388e-18 2.073685686e-18 2.073432816e-18 2.073898055e-18 2.067944599e-18 2.068164656e-18 2.067878176e-18 2.068184076e-18 2.067863597e-18 2.062242076e-18 2.061995204e-18 2.061803914e-18 2.062073894e-18 2.062520849e-18 2.056534341e-18 2.056322496e-18 2.057243433e-18 2.056843279e-18 2.056322187e-18 2.050601802e-18 2.051039159e-18 2.05086625e-18 2.050902875e-18 2.050946619e-18 2.044948385e-18 2.045601089e-18 2.045068478e-18 2.045649137e-18 2.045003317e-18 2.040477801e-18 2.040004905e-18 2.040553644e-18 2.039475401e-18 2.039827543e-18 2.034934655e-18 2.03494464e-18 2.034858126e-18 2.034523628e-18 2.035027145e-18 2.02954241e-18 2.028984246e-18 2.029076698e-18 2.028877168e-18 2.029087513e-18 2.023466686e-18 2.024491578e-18 2.023778962e-18 2.024072901e-18 2.02272535e-18 2.018821169e-18 2.019098213e-18 2.018874172e-18 2.019156828e-18 2.017617914e-18 2.013437539e-18 2.013178017e-18 2.013067819e-18 2.013014102e-18 2.012862754e-18 2.008298029e-18 2.007392185e-18 2.00750547e-18 2.007767086e-18 2.007974664e-18 2.002245596e-18 2.002145796e-18 2.00214556e-18 2.002852756e-18 2.002268049e-18 1.996701198e-18 1.997209599e-18 1.996731894e-18 1.99662351e-18 1.996909055e-18 1.991339635e-18 1.991781901e-18 1.991428339e-18 1.991120486e-18 1.991513729e-18 1.986051627e-18 1.986223919e-18 1.986340761e-18 1.986536281e-18 1.986394712e-18 1.980798023e-18 1.980474444e-18 1.980889358e-18 1.980891989e-18 1.981048513e-18 1.974196416e-18 1.974725426e-18 1.974553208e-18 1.974281853e-18 1.975009792e-18 1.968517895e-18 1.968377511e-18 1.968219399e-18 1.968616013e-18 1.968810523e-18 1.961686559e-18 1.962073223e-18 1.962235713e-18 1.961979151e-18 1.962969643e-18 1.953843866e-18 1.954517004e-18 1.954309044e-18 1.954615141e-18 1.954090623e-18 );

linearKEMean    250 ( 4.970748714e-12 4.972852271e-12 4.970646155e-12 4.971181763e-12 4.971770196e-12 4.973058993e-12 4.974355053e-12 4.973766235e-12 4.973458861e-12 4.972886794e-12 4.974284558e-12 4.975293405e-12 4.975252276e-12 4.974793336e-12 4.975648522e-12 4.977429863e-12 4.979695538e-12 4.977159932e-12 4.975789613e-12 4.977546036e-12 4.978453345e-12 4.977998855e-12 4.979762381e-12 4.979417241e-12 4.978868696e-12 4.980738041e-12 4.981722061e-12 4.980396145e-12 4.98071215e-12 4.979838564e-12 4.981405636e-12 4.982612036e-12 4.98137038e-12 4.982738283e-12 4.983925501e-12 4.983223231e-12 4.983817716e-12 4.984575567e-12 4.983466559e-12 4.982510516e-12 4.985837996e-12 4.986418115e-12 4.984695261e-12 4.983479886e-12 4.984594386e-12 4.987096232e-12 4.98766052e-12 4.984622941e-12 4.98522128e-12 4.98681705e-12 4.98870492e-12 4.989251582e-12 4.9884963e-12 4.98877971e-12 4.988398048e-12 4.989913049e-12 4.990698204e-12 4.991893163e-12 4.992470331e-12 4.990133327e-12 4.992637831e-12 4.992783078e-12 4.992239452e-12 4.992716392e-12 4.99214889e-12 4.993444331e-12 4.993291586e-12 4.993310065e-12 4.99372269e-12 4.994076452e-12 4.997295112e-12 4.996079795e-12 4.994782001e-12 4.996111063e-12 4.996104519e-12 4.997615053e-12 4.997590622e-12 4.995002468e-12 4.996785568e-12 4.998151677e-12 4.998992865e-12 5.000281667e-12 4.999547405e-12 4.999282017e-12 5.000158765e-12 5.001353027e-12 5.00184282e-12 5.004448775e-12 5.002678215e-12 5.001140405e-12 5.002600563e-12 5.004348212e-12 5.004192008e-12 5.004991782e-12 5.005533506e-12 5.006259401e-12 5.005193425e-12 5.006911838e-12 5.006727367e-12 5.005490581e-12 5.00700121e-12 5.007484906e-12 5.008482832e-12 5.009200078e-12 5.008548922e-12 5.009783943e-12 5.011182544e-12 5.00904578e-12 5.012173511e-12 5.012544557e-12 5.012420789e-12 5.011524894e-12 5.013273422e-12 5.014200996e-12 5.013108581e-12 5.013678954e-12 5.015450761e-12 5.013597655e-12 5.015549329e-12 5.01603817e-12 5.015654581e-12 5.015417765e-12 5.015534551e-12 5.018306144e-12 5.016161984e-12 5.019192696e-12 5.019465966e-12 5.017150178e-12 5.017336207e-12 5.021462586e-12 5.021726423e-12 5.021859989e-12 5.019158861e-12 5.021278429e-12 5.0211317e-12 5.02277344e-12 5.023985364e-12 5.023107321e-12 5.022458759e-12 5.022954255e-12 5.024876174e-12 5.024208373e-12 5.025533184e-12 5.023788236e-12 5.02593135e-12 5.027717404e-12 5.028045976e-12 5.028066322e-12 5.027415951e-12 5.026922649e-12 5.029980871e-12 5.029795675e-12 5.029625101e-12 5.028236601e-12 5.02848689e-12 5.031118504e-12 5.031356478e-12 5.033055171e-12 5.032196514e-12 5.030975613e-12 5.032965823e-12 5.03419614e-12 5.033662093e-12 5.034725269e-12 5.033813264e-12 5.034335913e-12 5.035500948e-12 5.034766408e-12 5.035779576e-12 5.036677476e-12 5.039118342e-12 5.039473678e-12 5.038797901e-12 5.036735962e-12 5.037471232e-12 5.040990983e-12 5.041078466e-12 5.041710559e-12 5.040239199e-12 5.041198067e-12 5.044556766e-12 5.04308204e-12 5.0428285e-12 5.043200389e-12 5.042957952e-12 5.044104887e-12 5.047615202e-12 5.045733123e-12 5.046197472e-12 5.043730009e-12 5.048352618e-12 5.050206264e-12 5.047766046e-12 5.049768525e-12 5.046860189e-12 5.050925311e-12 5.050683505e-12 5.05204114e-12 5.05033202e-12 5.049994618e-12 5.055656409e-12 5.053146794e-12 5.054211508e-12 5.053866089e-12 5.054043558e-12 5.05696792e-12 5.056745608e-12 5.055922341e-12 5.058186651e-12 5.055768352e-12 5.060234912e-12 5.060254671e-12 5.05968456e-12 5.059213112e-12 5.059911397e-12 5.061911668e-12 5.064158352e-12 5.062673354e-12 5.061530028e-12 5.061767951e-12 5.06594205e-12 5.066443274e-12 5.066926851e-12 5.06682654e-12 5.065093681e-12 5.069704638e-12 5.068945245e-12 5.070881922e-12 5.068777038e-12 5.070991042e-12 5.071941229e-12 5.071869162e-12 5.072839124e-12 5.07011468e-12 5.072940117e-12 5.075932736e-12 5.075361125e-12 5.074394432e-12 5.077239945e-12 5.077032543e-12 5.078672852e-12 5.081088951e-12 5.081742009e-12 5.081658035e-12 5.083452928e-12 5.086019442e-12 5.085780892e-12 5.086343535e-12 5.086955613e-12 5.08516567e-12 );

momentumMean    250 ( ( 3.512141919e-16 3.07626355e-20 -1.693657676e-19 ) ( 3.51262725e-16 6.276645642e-20 -1.457412345e-19 ) ( 3.515993003e-16 2.156181901e-19 -4.713124229e-19 ) ( 3.518422988e-16 5.451309262e-20 6.398435599e-20 ) ( 3.512557839e-16 -3.661487924e-19 -3.320633028e-19 ) ( 3.554410253e-16 -8.275957191e-20 -2.5542434e-19 ) ( 3.555802151e-16 -8.835411997e-20 -2.755159982e-19 ) ( 3.556827833e-16 -1.534825027e-19 -2.366906801e-19 ) ( 3.555007492e-16 -5.430841545e-20 -2.182520831e-19 ) ( 3.555637745e-16 7.872816368e-20 3.493194723e-19 ) ( 3.604160051e-16 -4.145717685e-20 -7.094167489e-20 ) ( 3.604877456e-16 4.904036109e-19 6.37260506e-19 ) ( 3.602914789e-16 -4.534687384e-19 1.786747132e-19 ) ( 3.601176119e-16 5.321691478e-19 -9.152324272e-20 ) ( 3.601695531e-16 -1.595848848e-19 1.783408508e-19 ) ( 3.650961163e-16 -8.083534551e-20 -1.457389422e-19 ) ( 3.654706723e-16 -3.473706547e-19 5.871056063e-19 ) ( 3.643632597e-16 4.465424575e-19 2.90498023e-19 ) ( 3.652214459e-16 -7.980472713e-20 2.939810874e-19 ) ( 3.650229352e-16 -2.868120417e-19 -3.19567098e-19 ) ( 3.693410953e-16 4.479023436e-19 5.886839839e-20 ) ( 3.692926233e-16 2.052468953e-19 1.236866922e-19 ) ( 3.6969777e-16 -2.770253727e-19 6.063780424e-19 ) ( 3.6963659e-16 -4.081884927e-19 -4.958755503e-19 ) ( 3.697745054e-16 1.065257505e-19 -6.357346417e-19 ) ( 3.736906615e-16 -1.693809277e-19 -3.584713816e-19 ) ( 3.742459365e-16 5.735328195e-19 2.367252843e-20 ) ( 3.740199633e-16 -7.769374506e-20 -5.112480629e-19 ) ( 3.741739857e-16 -2.943227536e-19 -8.45158709e-20 ) ( 3.735869462e-16 4.030383235e-19 -2.593125702e-19 ) ( 3.783503548e-16 1.154214072e-19 -2.906379707e-19 ) ( 3.78268768e-16 -3.022341111e-20 -7.403417904e-19 ) ( 3.788407449e-16 2.341614339e-19 -5.0779468e-19 ) ( 3.784132229e-16 -3.713691591e-19 -1.981901144e-19 ) ( 3.788204714e-16 -3.47904643e-21 -4.992607525e-19 ) ( 3.828230622e-16 -3.911913518e-19 -4.039574116e-19 ) ( 3.829157314e-16 -1.597185745e-19 -8.450361357e-20 ) ( 3.832048252e-16 -3.570874817e-19 -8.612057114e-20 ) ( 3.828088233e-16 1.757773006e-19 -8.017082472e-19 ) ( 3.828754637e-16 2.879163278e-19 1.519745147e-19 ) ( 3.880396899e-16 -1.601038318e-20 -2.955978498e-20 ) ( 3.880311582e-16 3.039282413e-19 -9.401213519e-21 ) ( 3.875698539e-16 1.159754391e-19 -1.405823859e-19 ) ( 3.872924151e-16 4.375810162e-20 -1.37456617e-19 ) ( 3.876804736e-16 8.339137558e-20 -4.306008329e-19 ) ( 3.91635217e-16 -4.016446994e-19 -2.288532836e-19 ) ( 3.91939972e-16 -2.08424484e-19 -2.728331561e-19 ) ( 3.923497589e-16 2.359766444e-19 -1.109121383e-19 ) ( 3.917145588e-16 -6.636483882e-20 -4.382467033e-19 ) ( 3.924876104e-16 -4.645266375e-19 -4.187972473e-20 ) ( 3.963747726e-16 -1.43527915e-19 4.412768886e-19 ) ( 3.962434796e-16 1.756296001e-19 -5.769519214e-19 ) ( 3.964274031e-16 3.050340582e-19 1.336944697e-19 ) ( 3.967340803e-16 1.986327552e-19 -6.451811497e-19 ) ( 3.965241577e-16 3.80544228e-19 1.629397236e-19 ) ( 4.010323505e-16 -6.821652794e-23 4.295977948e-19 ) ( 4.008433854e-16 -5.590202931e-19 1.130873067e-19 ) ( 4.008654565e-16 -1.761335035e-19 -2.275849301e-19 ) ( 4.01029362e-16 -2.367729831e-19 1.057906502e-19 ) ( 4.005837931e-16 3.155964536e-19 2.467902567e-19 ) ( 4.048642309e-16 1.815352456e-19 8.09021482e-19 ) ( 4.054292087e-16 -1.999556896e-20 4.873278562e-19 ) ( 4.051807257e-16 1.154381744e-20 -2.100427974e-20 ) ( 4.048976211e-16 1.56426771e-19 7.89453824e-19 ) ( 4.047049571e-16 1.871955944e-19 7.617836865e-20 ) ( 4.094197047e-16 -4.103834324e-19 6.19799599e-19 ) ( 4.091553534e-16 -3.505255049e-19 5.549106709e-19 ) ( 4.090066893e-16 3.15658666e-19 6.696165352e-19 ) ( 4.09208328e-16 4.32756015e-19 1.841778947e-19 ) ( 4.094490115e-16 -5.135729672e-20 8.725223756e-19 ) ( 4.134336776e-16 -2.153952495e-20 8.684798198e-19 ) ( 4.135004938e-16 3.2596695e-20 -9.691556913e-20 ) ( 4.13222028e-16 2.141124981e-20 9.434861802e-20 ) ( 4.134899845e-16 -2.778504924e-19 -3.566504734e-21 ) ( 4.134984358e-16 -4.079752657e-20 5.638950293e-19 ) ( 4.177795335e-16 -2.896802259e-19 3.850487782e-19 ) ( 4.174795179e-16 1.98097852e-19 -1.605097241e-19 ) ( 4.176264304e-16 -2.394436636e-19 2.940054862e-19 ) ( 4.183121361e-16 -3.12687371e-21 8.760246008e-20 ) ( 4.178399247e-16 5.180944359e-19 6.399385834e-20 ) ( 4.220614515e-16 5.990219164e-20 3.625432279e-20 ) ( 4.217436532e-16 -6.049902123e-21 -4.817179385e-19 ) ( 4.22201946e-16 1.584587508e-21 3.7767505e-20 ) ( 4.217748087e-16 -2.955937825e-19 3.035614864e-20 ) ( 4.217533557e-16 2.516336955e-19 4.491184986e-19 ) ( 4.258803335e-16 -2.085176304e-19 -1.884448088e-19 ) ( 4.256721351e-16 1.001601041e-19 -1.168559763e-19 ) ( 4.265981214e-16 -3.723048984e-19 3.755919779e-19 ) ( 4.259935619e-16 1.571526002e-19 4.615963705e-19 ) ( 4.259630933e-16 6.4051476e-19 6.689215022e-19 ) ( 4.303571886e-16 -2.215477762e-19 -5.660722598e-19 ) ( 4.302609841e-16 1.23769345e-20 2.65541457e-19 ) ( 4.298696522e-16 -2.060158284e-19 1.911274381e-19 ) ( 4.300221194e-16 3.117961192e-19 -3.329039728e-20 ) ( 4.300695207e-16 -3.536284271e-19 -3.457147812e-19 ) ( 4.345331572e-16 5.757266015e-19 3.707596362e-19 ) ( 4.339000383e-16 -3.827760555e-19 -1.944464016e-19 ) ( 4.342203806e-16 -2.597350896e-20 4.154334922e-19 ) ( 4.336567446e-16 -4.272422819e-20 3.867192132e-20 ) ( 4.345315764e-16 4.068400146e-19 2.440014136e-19 ) ( 4.386931677e-16 -4.648450498e-19 1.242480025e-19 ) ( 4.387715611e-16 1.805790118e-19 -3.859084639e-20 ) ( 4.387833013e-16 2.792764966e-19 6.627723e-20 ) ( 4.392485645e-16 -2.615314761e-19 3.258060735e-19 ) ( 4.382879613e-16 -2.322562656e-19 -1.361359033e-19 ) ( 4.425881366e-16 2.022399575e-20 3.301318819e-19 ) ( 4.424189353e-16 6.900520359e-20 5.736672101e-19 ) ( 4.42505593e-16 -3.020526872e-19 6.655620348e-19 ) ( 4.426782274e-16 5.494953384e-19 7.052505823e-19 ) ( 4.424504641e-16 4.917922743e-20 -1.120758916e-19 ) ( 4.45747265e-16 -2.685169484e-20 2.003417076e-19 ) ( 4.461343077e-16 -2.109454334e-19 -1.562521381e-19 ) ( 4.464202076e-16 5.322921679e-20 -9.760022326e-20 ) ( 4.46216143e-16 5.489465138e-19 3.78120087e-20 ) ( 4.461892656e-16 -5.233277382e-19 1.288288135e-19 ) ( 4.507273268e-16 2.88935784e-19 -2.468738049e-19 ) ( 4.504824581e-16 5.233531882e-20 7.258142772e-21 ) ( 4.500030386e-16 -2.25027285e-19 -3.710590106e-19 ) ( 4.504895062e-16 6.938597428e-20 6.76940445e-19 ) ( 4.506261762e-16 -1.440059464e-19 -2.082913085e-19 ) ( 4.541046552e-16 6.960456665e-20 1.995369813e-19 ) ( 4.544851113e-16 -2.869030975e-19 1.916545651e-19 ) ( 4.545148006e-16 -5.888882281e-20 -8.753665784e-20 ) ( 4.545996568e-16 5.822724231e-19 -5.331551e-19 ) ( 4.541497819e-16 -4.372703796e-20 5.712954344e-19 ) ( 4.588102574e-16 -1.848442861e-19 5.347910733e-19 ) ( 4.585134505e-16 1.3868062e-19 -2.01455356e-19 ) ( 4.586818198e-16 -4.9117338e-19 1.574657166e-19 ) ( 4.582732375e-16 2.477122331e-19 1.198276691e-19 ) ( 4.590623503e-16 -8.719853304e-20 3.616322117e-19 ) ( 4.624602074e-16 4.366333634e-19 -9.191593699e-21 ) ( 4.625455781e-16 -2.821939427e-19 -6.603444948e-20 ) ( 4.620271098e-16 2.233960185e-20 3.321301898e-19 ) ( 4.624928531e-16 -4.78162886e-21 8.760934318e-19 ) ( 4.622687487e-16 -1.205272358e-19 6.569056242e-21 ) ( 4.657364112e-16 -1.899903808e-19 -3.457145527e-19 ) ( 4.658764549e-16 2.764165087e-20 -2.822986504e-19 ) ( 4.661995445e-16 2.173510165e-20 7.891640254e-20 ) ( 4.654546377e-16 -3.140546291e-20 -2.643610504e-19 ) ( 4.659541642e-16 2.253921396e-20 8.490081054e-20 ) ( 4.697433022e-16 3.746457713e-19 1.486215329e-19 ) ( 4.697082401e-16 1.658312126e-19 1.318690301e-19 ) ( 4.701381502e-16 -4.586755427e-19 1.69945215e-19 ) ( 4.699203489e-16 1.852347055e-19 1.775332835e-21 ) ( 4.702484461e-16 1.82170518e-19 2.054541139e-19 ) ( 4.737872532e-16 -2.879180334e-19 2.208965484e-19 ) ( 4.737298642e-16 -6.739839362e-20 1.831814314e-19 ) ( 4.734657218e-16 3.64314881e-19 2.204309571e-20 ) ( 4.732044587e-16 -3.98444941e-19 9.784159715e-19 ) ( 4.732894609e-16 -5.96183088e-20 -1.04166238e-19 ) ( 4.772896661e-16 -8.442870757e-20 6.188418669e-20 ) ( 4.773934605e-16 3.614995407e-19 2.15239686e-19 ) ( 4.775895674e-16 4.029933433e-19 2.402696488e-20 ) ( 4.773796584e-16 -3.529293445e-20 6.778598579e-19 ) ( 4.777707398e-16 -2.63731923e-20 2.114512254e-19 ) ( 4.809941283e-16 9.512923228e-20 1.072034367e-19 ) ( 4.811255259e-16 -3.416435175e-19 5.065403516e-20 ) ( 4.815105673e-16 -4.396207818e-20 1.984673614e-19 ) ( 4.810913561e-16 -1.558839228e-19 -1.605417011e-19 ) ( 4.812968601e-16 8.530920705e-20 4.724214141e-19 ) ( 4.84635217e-16 -5.696395214e-20 -4.820756274e-19 ) ( 4.849992416e-16 -1.63044261e-19 1.438494891e-19 ) ( 4.852330205e-16 -2.517986234e-20 6.322170524e-20 ) ( 4.849901452e-16 -3.657328859e-19 -1.034543318e-19 ) ( 4.854148731e-16 2.087113667e-19 2.510034236e-19 ) ( 4.887452263e-16 2.843487958e-19 -1.977541481e-19 ) ( 4.888824297e-16 3.148468482e-20 3.373431879e-19 ) ( 4.884515092e-16 -2.940223768e-20 7.336091124e-19 ) ( 4.888352509e-16 4.478827319e-20 4.127201501e-19 ) ( 4.891420626e-16 7.191396052e-21 1.127268285e-19 ) ( 4.923176073e-16 3.43486574e-19 -2.554074509e-19 ) ( 4.922708083e-16 1.676521365e-19 2.392617142e-19 ) ( 4.921630355e-16 -1.346903604e-19 -2.42926684e-22 ) ( 4.926460061e-16 -2.297580803e-19 -1.682994548e-19 ) ( 4.919035806e-16 4.141873127e-20 -1.813493757e-19 ) ( 4.958143715e-16 2.645418902e-19 -1.491901162e-19 ) ( 4.958816727e-16 -2.909388121e-19 -1.645829796e-19 ) ( 4.955448827e-16 -2.963093985e-19 -3.325789753e-20 ) ( 4.960966249e-16 -2.999579754e-19 2.567466697e-19 ) ( 4.957270343e-16 8.471822476e-20 -9.044379242e-20 ) ( 4.999058197e-16 1.997676092e-20 2.464481428e-19 ) ( 4.996638134e-16 5.678068853e-20 -2.636825673e-20 ) ( 4.994281402e-16 -1.182370678e-20 1.405731372e-19 ) ( 4.995460297e-16 -3.708759955e-21 1.794917757e-19 ) ( 4.995555474e-16 2.501946077e-19 1.965804414e-19 ) ( 5.03117267e-16 1.948847579e-19 4.146696603e-19 ) ( 5.037170356e-16 6.491032366e-19 1.112455615e-18 ) ( 5.031970532e-16 -2.577649916e-19 6.953546864e-19 ) ( 5.034679239e-16 -2.934188743e-19 2.021281294e-19 ) ( 5.02953998e-16 -5.670490595e-20 -2.977114115e-19 ) ( 5.069757081e-16 -1.427852888e-19 3.258037018e-19 ) ( 5.069222221e-16 8.814195669e-20 6.950922902e-19 ) ( 5.072240626e-16 2.6731452e-19 -1.375332768e-19 ) ( 5.072647132e-16 1.290982893e-19 -1.001583064e-19 ) ( 5.071002147e-16 -3.941156642e-20 2.300805449e-19 ) ( 5.10616444e-16 -1.389877214e-19 -2.607790607e-19 ) ( 5.108484505e-16 3.847437825e-20 1.614322578e-19 ) ( 5.105630573e-16 -2.892003878e-19 3.013897426e-19 ) ( 5.108876517e-16 1.136747644e-19 -1.384655558e-19 ) ( 5.104747867e-16 -3.070503124e-19 2.960065752e-19 ) ( 5.14535849e-16 1.896115297e-19 4.225042489e-19 ) ( 5.144289866e-16 -3.324662119e-19 2.9979162e-19 ) ( 5.146271982e-16 2.435358331e-19 -1.751167817e-19 ) ( 5.14507669e-16 1.894398324e-20 -5.51657424e-20 ) ( 5.15101112e-16 -1.392917562e-19 1.018729512e-19 ) ( 5.183215625e-16 1.688622852e-19 -4.55375819e-20 ) ( 5.181712651e-16 2.276416749e-19 -1.650252403e-19 ) ( 5.184147842e-16 2.877722089e-19 4.575074929e-19 ) ( 5.184948457e-16 -1.913571704e-19 -2.32025368e-19 ) ( 5.183079574e-16 -2.844866588e-19 8.577277716e-20 ) ( 5.22050222e-16 2.274335823e-19 4.460489713e-19 ) ( 5.218896088e-16 1.050374141e-19 2.727923713e-19 ) ( 5.218028224e-16 3.680950228e-19 -3.98854927e-19 ) ( 5.218429162e-16 -2.882193934e-19 3.413948505e-20 ) ( 5.223031121e-16 -1.561482094e-19 -2.093726612e-19 ) ( 5.258018406e-16 8.739758656e-20 3.677545704e-19 ) ( 5.258974975e-16 5.379898703e-20 3.411264399e-19 ) ( 5.25954378e-16 -4.06495645e-19 -5.66766849e-19 ) ( 5.258384627e-16 6.329810266e-20 1.615296248e-19 ) ( 5.254736164e-16 -2.978249951e-20 9.977518903e-20 ) ( 5.299235967e-16 4.32831638e-19 1.614543699e-19 ) ( 5.296296377e-16 4.666562404e-20 4.168959066e-19 ) ( 5.294875833e-16 -9.946911474e-20 -4.722282921e-19 ) ( 5.30019587e-16 1.50436335e-19 7.581417291e-20 ) ( 5.29638145e-16 -2.760556041e-19 -5.557365223e-19 ) ( 5.334229388e-16 8.264180453e-20 -8.705058224e-19 ) ( 5.332640889e-16 -2.394137101e-19 -4.008251137e-19 ) ( 5.33818488e-16 -8.681409232e-20 -6.971846056e-19 ) ( 5.331937776e-16 -8.197235789e-21 -6.450311255e-19 ) ( 5.338720805e-16 -1.728120937e-19 -4.424538076e-19 ) ( 5.373199835e-16 2.411861424e-19 -5.062090417e-19 ) ( 5.377209073e-16 4.892311972e-19 -4.602679695e-19 ) ( 5.369753326e-16 -8.859478398e-19 -4.988266763e-19 ) ( 5.367230577e-16 1.757970801e-19 -5.084769084e-19 ) ( 5.371111246e-16 1.477693653e-19 -1.13731011e-19 ) ( 5.411199089e-16 -5.139059926e-19 -5.568682106e-19 ) ( 5.412595595e-16 5.037870503e-19 -2.096670961e-19 ) ( 5.40864585e-16 4.105185013e-19 -7.156652795e-19 ) ( 5.40848683e-16 -6.604386355e-20 8.26416247e-20 ) ( 5.414406838e-16 -2.532171992e-19 4.186819887e-20 ) ( 5.462438381e-16 -3.198922211e-19 1.681145449e-19 ) ( 5.457967374e-16 1.735557297e-19 -4.707310874e-19 ) ( 5.460559159e-16 1.470819131e-19 -6.040661879e-19 ) ( 5.466158736e-16 -3.514675307e-19 -4.077028427e-19 ) ( 5.46132976e-16 1.609704337e-19 1.684378123e-19 ) ( 5.504414344e-16 2.30257775e-19 -5.951176768e-19 ) ( 5.505325213e-16 5.973095206e-19 -2.770986145e-19 ) ( 5.511772688e-16 1.595142986e-19 -4.700873306e-19 ) ( 5.507111383e-16 -3.082605133e-19 -7.798962773e-19 ) ( 5.50724373e-16 4.824243177e-19 -2.378894535e-20 ) );

rotationalEMean 250 ( 1.638828116e-12 1.638948559e-12 1.638065353e-12 1.638624869e-12 1.638449383e-12 1.639104701e-12 1.638157554e-12 1.638674251e-12 1.63817342e-12 1.638133418e-12 1.638292494e-12 1.638442594e-12 1.638538402e-12 1.638112938e-12 1.638647917e-12 1.638541123e-12 1.639114436e-12 1.639010903e-12 1.638558714e-12 1.639085982e-12 1.638983515e-12 1.63934758e-12 1.639388425e-12 1.63911961e-12 1.638781337e-12 1.638838561e-12 1.639121263e-12 1.638898575e-12 1.638997611e-12 1.638740007e-12 1.638515467e-12 1.638699774e-12 1.638443929e-12 1.638960032e-12 1.638799374e-12 1.638763948e-12 1.638365377e-12 1.638736914e-12 1.638850591e-12 1.638516435e-12 1.639082052e-12 1.639690624e-12 1.639083941e-12 1.638032613e-12 1.638316167e-12 1.639155507e-12 1.639342996e-12 1.638330111e-12 1.638156308e-12 1.638513867e-12 1.638609983e-12 1.639386617e-12 1.638806545e-12 1.638608012e-12 1.638837351e-12 1.638797643e-12 1.638570639e-12 1.638915987e-12 1.639362167e-12 1.638967826e-12 1.638543948e-12 1.638823695e-12 1.638910162e-12 1.638928141e-12 1.638723873e-12 1.638441358e-12 1.638616537e-12 1.63876908e-12 1.638386142e-12 1.638174346e-12 1.639169307e-12 1.639286678e-12 1.638699127e-12 1.638599704e-12 1.637974796e-12 1.639423559e-12 1.639130501e-12 1.638411587e-12 1.638848706e-12 1.639327812e-12 1.638156066e-12 1.639193636e-12 1.638856395e-12 1.639373811e-12 1.639165402e-12 1.638916471e-12 1.639132749e-12 1.640144674e-12 1.639028696e-12 1.63922337e-12 1.639136993e-12 1.639029495e-12 1.639720355e-12 1.640197059e-12 1.639841566e-12 1.639958515e-12 1.638867743e-12 1.640174986e-12 1.639800848e-12 1.639623627e-12 1.639003577e-12 1.639092004e-12 1.640113499e-12 1.639693137e-12 1.639087915e-12 1.639445465e-12 1.64003886e-12 1.63996732e-12 1.640348571e-12 1.640540639e-12 1.639923895e-12 1.640518477e-12 1.640316328e-12 1.640098206e-12 1.639753743e-12 1.639920134e-12 1.641035446e-12 1.63975975e-12 1.64023748e-12 1.640565573e-12 1.639920575e-12 1.639985446e-12 1.639910815e-12 1.640147643e-12 1.640437203e-12 1.640870997e-12 1.640447386e-12 1.639656007e-12 1.639990818e-12 1.640721189e-12 1.640948568e-12 1.64082731e-12 1.640313341e-12 1.640554839e-12 1.6404561e-12 1.640338376e-12 1.640951238e-12 1.640263043e-12 1.641038088e-12 1.640844816e-12 1.641462255e-12 1.641110266e-12 1.641229922e-12 1.640987502e-12 1.641587223e-12 1.641015118e-12 1.640893879e-12 1.641558935e-12 1.641738633e-12 1.641224977e-12 1.641777218e-12 1.641283811e-12 1.640747527e-12 1.641150438e-12 1.642126821e-12 1.641689634e-12 1.64113073e-12 1.641652991e-12 1.641382398e-12 1.641284789e-12 1.640850514e-12 1.641014951e-12 1.641372554e-12 1.641517444e-12 1.640931353e-12 1.641466739e-12 1.642214282e-12 1.641409283e-12 1.642378057e-12 1.641455696e-12 1.641860481e-12 1.642120399e-12 1.642537312e-12 1.64114788e-12 1.641940389e-12 1.64208561e-12 1.642424617e-12 1.642101829e-12 1.642074894e-12 1.64205841e-12 1.64315424e-12 1.641707562e-12 1.641915626e-12 1.64194106e-12 1.642050732e-12 1.642768975e-12 1.643567395e-12 1.6424279e-12 1.642908391e-12 1.642204598e-12 1.64364486e-12 1.644003932e-12 1.64324358e-12 1.643718562e-12 1.642175667e-12 1.643474753e-12 1.643281593e-12 1.643342318e-12 1.643615001e-12 1.642859775e-12 1.644464963e-12 1.643616757e-12 1.643766962e-12 1.643876244e-12 1.644267174e-12 1.644206811e-12 1.643940064e-12 1.644138085e-12 1.644566145e-12 1.644218563e-12 1.64436523e-12 1.644830894e-12 1.644443541e-12 1.644181307e-12 1.644153885e-12 1.644997538e-12 1.645927579e-12 1.645581102e-12 1.644966233e-12 1.645360371e-12 1.64584937e-12 1.645706356e-12 1.64614525e-12 1.646131058e-12 1.64561388e-12 1.646317401e-12 1.646536712e-12 1.646576968e-12 1.646847255e-12 1.647045206e-12 1.645844519e-12 1.646732717e-12 1.646914807e-12 1.646288515e-12 1.646751183e-12 1.647381818e-12 1.646898207e-12 1.6468333e-12 1.647807139e-12 1.648122933e-12 1.648403268e-12 1.648264142e-12 1.648585732e-12 1.6484609e-12 1.648666092e-12 1.648639656e-12 1.649391311e-12 1.649263455e-12 1.649402946e-12 1.648910464e-12 );
