/*--------------------------------*- C++ -*----------------------------------*\
| =========                 |                                                 |
| \\      /  F ield         | OpenFOAM: The Open Source CFD Toolbox           |
|  \\    /   O peration     | Version:  v1706                                 |
|   \\  /    A nd           | Web:      www.OpenFOAM.com                      |
|    \\/     M anipulation  |                                                 |
\*---------------------------------------------------------------------------*/
FoamFile
{
    version     2.0;
    format      ascii;
    class       dictionary;
    location    "7.9999999999/uniform";
    object      volFieldsMethod_N2;
}
// * * * * * * * * * * * * * * * * * * * * * * * * * * * * * * * * * * * * * //

rhoNMean        250 ( 37121647 37112157 37101825 37118016 37118300 36996816 37007438 36994139 36998852 36987640 36868523 36879284 36874412 36892193 36885518 36768413 36785925 36777209 36774895 36774411 36659645 36665028 36666054 36657801 36658569 36543904 36553353 36548340 36541514 36540111 36428134 36435129 36430954 36445409 36445927 36318056 36318757 36324952 36323401 36316014 36213008 36216957 36212413 36202556 36201178 36103247 36114514 36098488 36104158 36109222 35992801 36005910 35992384 35994769 35997558 35884254 35895421 35901083 35900153 35891823 35784698 35786376 35789296 35787951 35783364 35680840 35668649 35676526 35680412 35678152 35587890 35577765 35573030 35581696 35576872 35483715 35483622 35458579 35470327 35479745 35370636 35381881 35371843 35370289 35366767 35271573 35277117 35286965 35282276 35274138 35175281 35168726 35179027 35190015 35188523 35077975 35070048 35087056 35074485 35080197 34970845 34976831 34979874 34984159 34976171 34873035 34889831 34876915 34884858 34894845 34777700 34779678 34790167 34793993 34779048 34678942 34694410 34677281 34693549 34691447 34595751 34583662 34582959 34604681 34591443 34502320 34507649 34491613 34488576 34506545 34405426 34418581 34407779 34415461 34406352 34305950 34324681 34306722 34308665 34308849 34235835 34223744 34224248 34221298 34226303 34131446 34132123 34122647 34126413 34121752 34037914 34033753 34021244 34029746 34033902 33937771 33940315 33947048 33949335 33941445 33843237 33849581 33851716 33852322 33848338 33753858 33762770 33756299 33762485 33751193 33670303 33669223 33674325 33655422 33666855 33586574 33588500 33591394 33576726 33590954 33500576 33492974 33485861 33486617 33492725 33394130 33414416 33396925 33409880 33386450 33319708 33320202 33314181 33327709 33296772 33228533 33225360 33221336 33222373 33225552 33142352 33127963 33130325 33139593 33142500 33047417 33037409 33042187 33058956 33048246 32946561 32960348 32959144 32955849 32958461 32866785 32875541 32870806 32865016 32871412 32783561 32785074 32791938 32788883 32788980 32696408 32690177 32699815 32698559 32702526 32588862 32597586 32590100 32588201 32603610 32491632 32492882 32485905 32499511 32498398 32369552 32385648 32385127 32383192 32399310 32243220 32260263 32259821 32256488 32252293 );

rhoMMean        250 ( 1.726156586e-18 1.725715301e-18 1.725234863e-18 1.725987744e-18 1.72600095e-18 1.720351944e-18 1.720845867e-18 1.720227464e-18 1.720446618e-18 1.71992526e-18 1.71438632e-18 1.714886706e-18 1.714660158e-18 1.715486975e-18 1.715176587e-18 1.709731205e-18 1.710545513e-18 1.710140219e-18 1.710032618e-18 1.710010112e-18 1.704673493e-18 1.704923802e-18 1.704971511e-18 1.704587747e-18 1.704623459e-18 1.699291536e-18 1.699730915e-18 1.69949781e-18 1.699180401e-18 1.699115162e-18 1.693908231e-18 1.694233499e-18 1.694039361e-18 1.694711519e-18 1.694735606e-18 1.688789604e-18 1.688822201e-18 1.689110268e-18 1.689038147e-18 1.688694651e-18 1.683904872e-18 1.684088501e-18 1.683877205e-18 1.683418854e-18 1.683354777e-18 1.678800986e-18 1.679324901e-18 1.678579692e-18 1.678843347e-18 1.679078823e-18 1.673665247e-18 1.674274815e-18 1.673645856e-18 1.673756759e-18 1.673886447e-18 1.668617811e-18 1.669137077e-18 1.66940036e-18 1.669357115e-18 1.66896977e-18 1.663988457e-18 1.664066484e-18 1.664202264e-18 1.664139722e-18 1.663926426e-18 1.65915906e-18 1.658592179e-18 1.658958459e-18 1.659139158e-18 1.659034068e-18 1.654836885e-18 1.654366073e-18 1.654145895e-18 1.654548864e-18 1.654324548e-18 1.649992748e-18 1.649988423e-18 1.648823924e-18 1.649370206e-18 1.649808143e-18 1.644734574e-18 1.645257467e-18 1.6447907e-18 1.644718439e-18 1.644554666e-18 1.640128145e-18 1.640385941e-18 1.640843873e-18 1.640625834e-18 1.640247417e-18 1.635650567e-18 1.635345759e-18 1.635824756e-18 1.636335698e-18 1.63626632e-18 1.631125838e-18 1.630757232e-18 1.631548104e-18 1.630963553e-18 1.631229161e-18 1.626144293e-18 1.626422642e-18 1.626564141e-18 1.626763394e-18 1.626391952e-18 1.621596128e-18 1.622377142e-18 1.621776548e-18 1.622145897e-18 1.622610293e-18 1.61716305e-18 1.617255027e-18 1.617742766e-18 1.617920675e-18 1.617225732e-18 1.612570803e-18 1.613290065e-18 1.612493567e-18 1.613250029e-18 1.613152286e-18 1.608702422e-18 1.608140283e-18 1.608107594e-18 1.609117667e-18 1.6085021e-18 1.60435788e-18 1.604605679e-18 1.603860005e-18 1.603718784e-18 1.604554343e-18 1.599852309e-18 1.600464017e-18 1.599961724e-18 1.600318937e-18 1.599895368e-18 1.595226675e-18 1.596097667e-18 1.595262573e-18 1.595352923e-18 1.595361479e-18 1.591966328e-18 1.591404096e-18 1.591427532e-18 1.591290357e-18 1.59152309e-18 1.587112239e-18 1.58714372e-18 1.586703086e-18 1.586878205e-18 1.586661468e-18 1.582763001e-18 1.582569515e-18 1.581987846e-18 1.582383189e-18 1.582576443e-18 1.578106352e-18 1.578224648e-18 1.578537732e-18 1.578644078e-18 1.578277193e-18 1.573710521e-18 1.574005517e-18 1.574104794e-18 1.574132973e-18 1.573947717e-18 1.569554397e-18 1.569968805e-18 1.569667904e-18 1.569955553e-18 1.569430475e-18 1.56566909e-18 1.56561887e-18 1.565856113e-18 1.564977123e-18 1.565508758e-18 1.561775691e-18 1.56186525e-18 1.561999821e-18 1.561317759e-18 1.561979361e-18 1.557776784e-18 1.557423291e-18 1.557092537e-18 1.557127691e-18 1.557411713e-18 1.552827045e-18 1.553770344e-18 1.552957013e-18 1.55355942e-18 1.552469925e-18 1.549366422e-18 1.549389393e-18 1.549109417e-18 1.549738469e-18 1.548299898e-18 1.545126785e-18 1.54497924e-18 1.544792124e-18 1.544840345e-18 1.544988168e-18 1.541119368e-18 1.54045028e-18 1.540560113e-18 1.540991075e-18 1.54112625e-18 1.536704891e-18 1.536239519e-18 1.536461696e-18 1.537241454e-18 1.536743439e-18 1.532015087e-18 1.532656182e-18 1.532600196e-18 1.532446979e-18 1.532568437e-18 1.528305503e-18 1.528712657e-18 1.528492479e-18 1.528223244e-18 1.528520658e-18 1.524435587e-18 1.524505941e-18 1.524825117e-18 1.52468306e-18 1.52468757e-18 1.520382972e-18 1.520093231e-18 1.520541398e-18 1.520482994e-18 1.520667459e-18 1.515382083e-18 1.515787749e-18 1.51543965e-18 1.515351347e-18 1.516067865e-18 1.510860888e-18 1.510919013e-18 1.510594583e-18 1.511227262e-18 1.511175507e-18 1.505184168e-18 1.505932632e-18 1.505908406e-18 1.505818428e-18 1.506567915e-18 1.49930973e-18 1.50010223e-18 1.500081677e-18 1.499926692e-18 1.499731625e-18 );

linearKEMean    250 ( 3.92628916e-12 3.927412114e-12 3.92635241e-12 3.926174286e-12 3.927481734e-12 3.927775411e-12 3.929675634e-12 3.92799563e-12 3.92792664e-12 3.92718875e-12 3.928375018e-12 3.929772581e-12 3.929062077e-12 3.92990288e-12 3.92965943e-12 3.930867437e-12 3.933017747e-12 3.931057868e-12 3.93026097e-12 3.931627508e-12 3.932647385e-12 3.932176537e-12 3.933803964e-12 3.932283828e-12 3.932812039e-12 3.93409775e-12 3.935284501e-12 3.934380721e-12 3.933400668e-12 3.933096012e-12 3.934313516e-12 3.935172902e-12 3.934083335e-12 3.935815333e-12 3.936155868e-12 3.935981817e-12 3.936161551e-12 3.936787218e-12 3.935775706e-12 3.935103902e-12 3.937758649e-12 3.938636448e-12 3.937197379e-12 3.935489183e-12 3.937413429e-12 3.93931268e-12 3.939654385e-12 3.937516667e-12 3.938686606e-12 3.938922339e-12 3.940270952e-12 3.941145344e-12 3.940098287e-12 3.939987953e-12 3.940071006e-12 3.940804805e-12 3.942359481e-12 3.942515583e-12 3.94323692e-12 3.94115043e-12 3.943016664e-12 3.943286818e-12 3.942826771e-12 3.944062943e-12 3.942890554e-12 3.944373716e-12 3.944397279e-12 3.943971845e-12 3.944430852e-12 3.944393558e-12 3.946815717e-12 3.945938808e-12 3.945698839e-12 3.94641668e-12 3.946136696e-12 3.947224607e-12 3.94732745e-12 3.945574284e-12 3.946759063e-12 3.947670581e-12 3.948632673e-12 3.949349225e-12 3.949122065e-12 3.948494204e-12 3.949220565e-12 3.95081769e-12 3.951052513e-12 3.952747897e-12 3.951885805e-12 3.950473126e-12 3.951852353e-12 3.953140631e-12 3.953342011e-12 3.953134562e-12 3.954187448e-12 3.95401012e-12 3.953118321e-12 3.955697828e-12 3.953997575e-12 3.953688624e-12 3.95437863e-12 3.955086729e-12 3.956569443e-12 3.957240807e-12 3.955694398e-12 3.95670093e-12 3.957932704e-12 3.95681964e-12 3.958313887e-12 3.959587998e-12 3.958853729e-12 3.958426077e-12 3.959250596e-12 3.960160875e-12 3.959109135e-12 3.960003284e-12 3.961402831e-12 3.959781669e-12 3.961120977e-12 3.961634554e-12 3.962087845e-12 3.961405842e-12 3.961366926e-12 3.963187686e-12 3.962184769e-12 3.964887e-12 3.964935335e-12 3.962484046e-12 3.962635696e-12 3.966021497e-12 3.966119127e-12 3.966746003e-12 3.965224112e-12 3.966792012e-12 3.966397269e-12 3.96698669e-12 3.968881113e-12 3.967778399e-12 3.966749711e-12 3.967238767e-12 3.969857247e-12 3.968260742e-12 3.969249519e-12 3.967974405e-12 3.969483945e-12 3.971234188e-12 3.971454431e-12 3.970628126e-12 3.970618412e-12 3.970191743e-12 3.973448345e-12 3.973427259e-12 3.971892008e-12 3.971102635e-12 3.971215611e-12 3.973715249e-12 3.974551033e-12 3.975480021e-12 3.975067441e-12 3.973888291e-12 3.975366461e-12 3.976308437e-12 3.976275249e-12 3.977142755e-12 3.97590251e-12 3.976450785e-12 3.97730215e-12 3.976926634e-12 3.977528236e-12 3.977943795e-12 3.979153427e-12 3.97990674e-12 3.979272683e-12 3.977905986e-12 3.978868678e-12 3.9817631e-12 3.982151275e-12 3.982896473e-12 3.980458349e-12 3.982366036e-12 3.985307451e-12 3.983627711e-12 3.982965754e-12 3.983358994e-12 3.982744655e-12 3.983678389e-12 3.986977166e-12 3.985025082e-12 3.985907012e-12 3.983977966e-12 3.987331111e-12 3.988296259e-12 3.985827024e-12 3.988612251e-12 3.98524582e-12 3.989303816e-12 3.989209557e-12 3.990060643e-12 3.988144446e-12 3.988995441e-12 3.992553479e-12 3.990033322e-12 3.991930061e-12 3.991192455e-12 3.991705841e-12 3.994194271e-12 3.993420637e-12 3.992424628e-12 3.995508229e-12 3.993107554e-12 3.995355374e-12 3.996899299e-12 3.996220499e-12 3.995663545e-12 3.995934144e-12 3.997789726e-12 3.99967465e-12 3.998557423e-12 3.997175343e-12 3.998254852e-12 4.001920147e-12 4.002212919e-12 4.002732388e-12 4.001884958e-12 4.000924117e-12 4.00396503e-12 4.003746866e-12 4.005661281e-12 4.003983645e-12 4.006178294e-12 4.005864456e-12 4.006068435e-12 4.006745088e-12 4.004368567e-12 4.007359111e-12 4.009167621e-12 4.008626941e-12 4.007384894e-12 4.010531918e-12 4.009989028e-12 4.009811387e-12 4.013060277e-12 4.013090552e-12 4.013656064e-12 4.014852984e-12 4.016348101e-12 4.016882871e-12 4.0175522e-12 4.01731924e-12 4.015560208e-12 );

momentumMean    250 ( ( 2.693947847e-16 1.538954802e-20 -2.956138001e-19 ) ( 2.694027399e-16 2.294804316e-19 -1.541325786e-20 ) ( 2.695754791e-16 -1.003286975e-19 -4.778367009e-20 ) ( 2.697442865e-16 6.393613979e-20 2.540308156e-19 ) ( 2.695457235e-16 7.09568435e-21 -1.36746313e-19 ) ( 2.725688872e-16 5.739479665e-21 -1.876312028e-19 ) ( 2.728098705e-16 -1.475847067e-19 -1.030657359e-19 ) ( 2.727848435e-16 -2.403389117e-19 -4.046788107e-19 ) ( 2.72540951e-16 6.27075607e-20 -2.461028187e-19 ) ( 2.724887915e-16 5.311991348e-20 1.173843229e-19 ) ( 2.765216209e-16 -4.041304907e-20 3.83916812e-20 ) ( 2.763985748e-16 1.709088313e-19 3.747392831e-19 ) ( 2.762180454e-16 -1.450511425e-19 3.190591984e-19 ) ( 2.765348551e-16 3.402437472e-19 -2.497104003e-19 ) ( 2.763858625e-16 -6.0616579e-21 1.532578321e-19 ) ( 2.800766749e-16 1.920511287e-19 -7.643127604e-20 ) ( 2.804799494e-16 -3.508030253e-19 4.243360136e-19 ) ( 2.79517048e-16 3.003907195e-19 3.806829892e-19 ) ( 2.801609743e-16 -1.051081403e-19 6.443156722e-20 ) ( 2.801957793e-16 -2.401589644e-19 -3.719932259e-19 ) ( 2.834570042e-16 3.946152535e-19 3.391634828e-20 ) ( 2.834071145e-16 1.52351685e-19 3.96660221e-21 ) ( 2.836738178e-16 -3.051630781e-19 5.282648799e-19 ) ( 2.837389941e-16 -3.299830788e-19 -3.725774419e-19 ) ( 2.836967381e-16 3.55081279e-20 -5.384144068e-19 ) ( 2.866289929e-16 -1.437628858e-19 -2.113031028e-19 ) ( 2.870607618e-16 4.681303196e-19 -2.481595119e-19 ) ( 2.869290077e-16 -1.154810576e-19 -4.626147842e-19 ) ( 2.869890664e-16 -2.258628837e-19 -2.415701094e-19 ) ( 2.866885936e-16 3.246253015e-19 -2.620585497e-19 ) ( 2.903381971e-16 2.244998823e-20 -2.319724152e-19 ) ( 2.903600088e-16 9.827922966e-20 -5.603417942e-19 ) ( 2.905765647e-16 3.132805735e-19 -1.780383844e-19 ) ( 2.903160043e-16 -3.088321872e-19 -3.860357043e-22 ) ( 2.905451818e-16 4.345657804e-20 -3.791904838e-19 ) ( 2.937295559e-16 -4.713175709e-19 -1.866364997e-19 ) ( 2.939411354e-16 -2.205221827e-19 -2.092676624e-19 ) ( 2.940791794e-16 -1.175488227e-19 -2.502952598e-19 ) ( 2.939158564e-16 7.177897733e-20 -5.885128804e-19 ) ( 2.938728328e-16 4.530172687e-19 8.126298919e-20 ) ( 2.977199004e-16 1.928497039e-20 -9.422998642e-20 ) ( 2.976144847e-16 2.475719908e-19 -4.313734328e-20 ) ( 2.973526325e-16 5.642796779e-21 -2.951248202e-20 ) ( 2.970814712e-16 1.690529763e-19 -3.180846225e-20 ) ( 2.97520189e-16 -9.087560737e-20 -2.67473362e-19 ) ( 3.00435636e-16 -3.959011458e-19 -1.57863518e-19 ) ( 3.007157219e-16 -1.199140347e-19 -2.688952173e-19 ) ( 3.008416637e-16 2.441606924e-19 -2.535681448e-19 ) ( 3.006513487e-16 9.164050595e-21 -3.04384305e-19 ) ( 3.011134297e-16 -2.309803855e-19 -3.165228703e-20 ) ( 3.04084186e-16 -1.165419258e-19 5.108652707e-19 ) ( 3.038916158e-16 1.090843727e-19 -5.231143638e-19 ) ( 3.041578614e-16 2.714744784e-19 3.758484784e-19 ) ( 3.043604418e-16 1.714665491e-20 -3.220189615e-19 ) ( 3.041840206e-16 3.436374787e-19 2.653062304e-19 ) ( 3.07725273e-16 9.790883403e-20 3.280577978e-19 ) ( 3.076057978e-16 -3.980989619e-19 1.273080646e-19 ) ( 3.077547266e-16 -3.122178771e-19 -4.680969086e-19 ) ( 3.077169687e-16 -4.100678703e-19 -8.216528274e-20 ) ( 3.075788323e-16 4.197943843e-19 3.054876986e-19 ) ( 3.107655891e-16 3.848156407e-19 4.954454855e-19 ) ( 3.112025283e-16 6.195886671e-20 1.616070395e-19 ) ( 3.109461967e-16 -9.430522087e-21 2.333481945e-19 ) ( 3.107276646e-16 8.303010103e-20 5.911890761e-19 ) ( 3.105886346e-16 1.372198681e-19 3.361304776e-20 ) ( 3.14095072e-16 -2.30752862e-19 3.859015317e-19 ) ( 3.139712157e-16 -3.87468103e-19 3.059604937e-19 ) ( 3.139338061e-16 2.596908514e-19 4.690394831e-19 ) ( 3.138970885e-16 2.815866531e-19 5.548061632e-20 ) ( 3.142783864e-16 3.443185506e-20 7.653285679e-19 ) ( 3.17271952e-16 1.911227471e-19 7.831994596e-19 ) ( 3.173148404e-16 -5.981469977e-20 -3.180880107e-19 ) ( 3.171959971e-16 -6.817308731e-20 4.521429414e-20 ) ( 3.173213832e-16 -3.732965219e-19 -1.414889806e-19 ) ( 3.173176125e-16 3.987316442e-20 4.997227239e-19 ) ( 3.206935092e-16 -9.352290906e-20 4.937071058e-19 ) ( 3.206607781e-16 1.491516332e-19 9.223988897e-20 ) ( 3.207226586e-16 -1.799537161e-19 3.047345607e-19 ) ( 3.212767219e-16 -3.646988085e-20 1.202745159e-19 ) ( 3.207820368e-16 4.623357048e-19 -8.74003428e-21 ) ( 3.239130178e-16 -4.648374738e-20 -2.280427178e-19 ) ( 3.237019872e-16 -1.155130406e-20 -7.077722472e-19 ) ( 3.240013269e-16 -1.307858885e-19 -1.5473183e-20 ) ( 3.236117754e-16 2.846388509e-20 -1.458722348e-20 ) ( 3.237068354e-16 2.607521054e-19 2.684671357e-19 ) ( 3.267717474e-16 -2.981814958e-19 -3.234135836e-19 ) ( 3.265631722e-16 1.794094092e-19 3.219321449e-20 ) ( 3.271788693e-16 -3.969025302e-19 3.134465974e-19 ) ( 3.269845612e-16 1.835707497e-19 2.301907854e-19 ) ( 3.269405357e-16 5.637336225e-19 2.916306239e-19 ) ( 3.30274631e-16 -1.181374541e-19 -2.523079588e-19 ) ( 3.302195278e-16 1.653451724e-19 -1.29002983e-20 ) ( 3.298049733e-16 -2.883924172e-19 -1.366533313e-20 ) ( 3.300017784e-16 2.064309418e-19 -2.387811172e-19 ) ( 3.301411238e-16 -2.613003367e-19 -1.507914223e-19 ) ( 3.334797436e-16 4.724943207e-19 1.270582283e-19 ) ( 3.332341203e-16 -2.384193676e-19 -1.44239004e-19 ) ( 3.334606785e-16 -2.667834772e-20 1.026830097e-19 ) ( 3.328926826e-16 -4.268978202e-21 -1.487925167e-19 ) ( 3.33459306e-16 1.792487445e-19 1.662063917e-19 ) ( 3.363330215e-16 -5.211541355e-19 -1.106470395e-20 ) ( 3.369941775e-16 -5.840030873e-20 -7.194327453e-20 ) ( 3.367617689e-16 2.61575162e-19 1.216698142e-19 ) ( 3.373869744e-16 -2.644561218e-20 2.279210293e-19 ) ( 3.363844033e-16 -1.411023981e-19 -8.082894729e-20 ) ( 3.395232692e-16 -3.46265776e-20 4.842928998e-19 ) ( 3.394400122e-16 -9.518705568e-20 4.660821727e-19 ) ( 3.395123805e-16 3.338907987e-20 6.664085596e-19 ) ( 3.39627298e-16 5.872949579e-19 3.844328995e-19 ) ( 3.397481967e-16 5.271062959e-20 -2.754271125e-19 ) ( 3.420962026e-16 -1.042308218e-20 4.520008397e-19 ) ( 3.421003566e-16 -3.794967091e-19 9.807553177e-20 ) ( 3.425991007e-16 -2.70934286e-20 8.63463395e-20 ) ( 3.421952081e-16 5.322476866e-19 5.762714897e-20 ) ( 3.422014764e-16 -3.376389581e-19 1.475827154e-20 ) ( 3.458169353e-16 1.366510362e-19 -6.828547589e-20 ) ( 3.455479203e-16 1.720467912e-20 -1.146626271e-19 ) ( 3.449762227e-16 -1.531377378e-19 -5.753550909e-20 ) ( 3.456441215e-16 1.220623901e-19 6.966082314e-19 ) ( 3.457938252e-16 -9.062097279e-20 -1.108823535e-19 ) ( 3.482092531e-16 1.894193666e-19 3.278340441e-19 ) ( 3.487793705e-16 -2.738874669e-19 2.06066047e-19 ) ( 3.487861627e-16 -1.584742849e-19 -1.367428348e-19 ) ( 3.487651129e-16 5.937702281e-19 -5.56616844e-19 ) ( 3.48319813e-16 -8.63358974e-20 4.915399274e-19 ) ( 3.522490122e-16 -1.828631244e-19 3.193400746e-19 ) ( 3.517709239e-16 -1.336464156e-20 -4.193656915e-20 ) ( 3.518911594e-16 -2.225703421e-19 2.455382328e-19 ) ( 3.515797196e-16 3.028575635e-19 2.466936279e-19 ) ( 3.5244684e-16 3.648610607e-20 4.055949395e-19 ) ( 3.548275605e-16 4.062269705e-19 6.661571241e-20 ) ( 3.549516874e-16 -3.309130091e-19 8.075728208e-20 ) ( 3.54640122e-16 -6.210849395e-21 1.638633464e-19 ) ( 3.548186993e-16 9.63589738e-20 6.213571037e-19 ) ( 3.548963666e-16 -3.47629351e-19 -6.598217861e-20 ) ( 3.573943631e-16 -1.971493206e-19 -5.074531742e-19 ) ( 3.577099161e-16 2.479549522e-20 -3.27449828e-19 ) ( 3.579335999e-16 5.148482981e-20 -8.211380414e-20 ) ( 3.571513702e-16 1.194842238e-19 -1.251752562e-19 ) ( 3.575587628e-16 -1.169752363e-20 4.784032321e-21 ) ( 3.605633211e-16 4.63318568e-20 5.679084882e-20 ) ( 3.602630691e-16 1.686963909e-19 2.077024997e-20 ) ( 3.608310336e-16 -1.973150771e-19 1.021528997e-20 ) ( 3.605408885e-16 9.943281492e-20 -1.629037536e-19 ) ( 3.607484362e-16 2.812047609e-19 1.752150836e-19 ) ( 3.636410743e-16 -3.679369041e-19 3.347973041e-19 ) ( 3.63479234e-16 1.505640054e-20 1.820231666e-19 ) ( 3.632743279e-16 4.674330979e-19 -1.665821741e-19 ) ( 3.632266429e-16 -4.043897837e-19 6.065486211e-19 ) ( 3.633230923e-16 -1.425895768e-19 -4.291861932e-20 ) ( 3.665031549e-16 -7.77892607e-20 1.213479645e-19 ) ( 3.664718964e-16 4.481302347e-19 3.51651862e-19 ) ( 3.665882009e-16 4.726208178e-19 2.845483724e-19 ) ( 3.664620505e-16 -4.694827834e-20 4.348841148e-19 ) ( 3.666858333e-16 -8.077888021e-20 2.453678214e-19 ) ( 3.693201398e-16 1.568751366e-19 1.596538512e-19 ) ( 3.691680454e-16 -2.829445256e-19 1.061096965e-20 ) ( 3.697988831e-16 -9.221791374e-20 2.557142784e-19 ) ( 3.693849457e-16 -8.668630428e-20 -1.464335028e-19 ) ( 3.693949357e-16 6.103198773e-20 5.414571997e-19 ) ( 3.721315683e-16 1.148164748e-20 -2.294131907e-19 ) ( 3.721936706e-16 9.685782443e-20 6.707005333e-20 ) ( 3.725450982e-16 -9.980075007e-20 7.428947584e-20 ) ( 3.721106524e-16 -2.644111151e-19 -1.728763898e-19 ) ( 3.7259361e-16 1.937302485e-19 4.386395488e-19 ) ( 3.752906067e-16 1.338917087e-19 -2.019601714e-19 ) ( 3.753949317e-16 1.602522266e-19 2.341590638e-19 ) ( 3.750790796e-16 -1.103218311e-19 5.944496127e-19 ) ( 3.752521064e-16 -2.398281914e-20 4.38379415e-19 ) ( 3.755898176e-16 -1.415865156e-19 2.831357486e-19 ) ( 3.777014741e-16 3.261080089e-19 -8.368295433e-20 ) ( 3.779936153e-16 1.56593859e-19 3.502907164e-19 ) ( 3.777119804e-16 -1.678020405e-19 6.923871286e-20 ) ( 3.782230847e-16 -2.262069535e-19 1.763891915e-19 ) ( 3.776569826e-16 2.547241967e-19 -4.579821029e-20 ) ( 3.805970198e-16 3.505335414e-19 -2.171330926e-19 ) ( 3.806433006e-16 -3.407566062e-19 1.464943164e-19 ) ( 3.803781081e-16 -1.895044152e-19 1.212520514e-19 ) ( 3.808094932e-16 -3.001301357e-19 1.916132705e-19 ) ( 3.803513206e-16 -2.483826772e-20 -2.502081181e-20 ) ( 3.839348521e-16 -2.170863581e-19 2.768742788e-19 ) ( 3.835057016e-16 8.023480603e-20 3.580394457e-19 ) ( 3.834760698e-16 4.687903309e-20 8.293885634e-20 ) ( 3.835968323e-16 1.388525639e-19 1.400631051e-19 ) ( 3.832963493e-16 1.737362912e-19 9.860089402e-20 ) ( 3.861348341e-16 6.656863696e-20 3.276759945e-19 ) ( 3.866204264e-16 4.995523725e-19 1.005017151e-18 ) ( 3.863068389e-16 -1.046578193e-19 8.218504347e-19 ) ( 3.866172943e-16 -2.169126996e-19 3.694211671e-19 ) ( 3.85984424e-16 1.1436706e-19 -1.134817125e-19 ) ( 3.891425282e-16 -6.950999602e-20 2.219042463e-19 ) ( 3.890381085e-16 -2.594060949e-19 5.181171571e-19 ) ( 3.890636984e-16 1.028579478e-19 9.285327325e-20 ) ( 3.894188335e-16 2.70869427e-19 8.942461984e-20 ) ( 3.892718883e-16 4.209078242e-20 2.620586775e-19 ) ( 3.920834009e-16 -9.687606132e-20 -2.17968316e-19 ) ( 3.92304371e-16 7.73926505e-20 1.08550024e-19 ) ( 3.916992803e-16 -2.24603495e-19 2.885698672e-19 ) ( 3.919219015e-16 -5.58857117e-20 -1.613081137e-19 ) ( 3.917312023e-16 -1.764751118e-19 3.821596357e-19 ) ( 3.947883485e-16 2.139992765e-19 1.699361669e-19 ) ( 3.948468901e-16 -3.268642025e-20 3.152896101e-19 ) ( 3.950637955e-16 2.265332716e-19 -1.031980864e-19 ) ( 3.949595987e-16 1.017789346e-19 1.751496739e-19 ) ( 3.954639915e-16 -1.710496929e-19 7.162940983e-20 ) ( 3.977318719e-16 2.543014936e-19 2.048903048e-19 ) ( 3.976383788e-16 1.191744975e-19 -8.5597334e-20 ) ( 3.976214516e-16 3.271209956e-19 2.911519134e-19 ) ( 3.979766509e-16 -2.695734132e-19 -2.251183868e-19 ) ( 3.976788664e-16 -2.317196281e-19 1.089966283e-19 ) ( 4.004543724e-16 1.898518029e-19 4.143771101e-19 ) ( 4.006203768e-16 2.208797848e-19 4.402895689e-19 ) ( 4.002012751e-16 4.171511013e-19 -2.501999401e-19 ) ( 4.004847064e-16 -5.882903286e-19 1.19026325e-19 ) ( 4.007047492e-16 -9.603467971e-20 2.205046019e-21 ) ( 4.035022877e-16 1.14006857e-19 3.773807274e-19 ) ( 4.037784635e-16 1.297538644e-19 3.319457709e-19 ) ( 4.039241372e-16 -2.261700539e-19 -2.720317375e-19 ) ( 4.035612484e-16 -1.152792116e-19 4.53004102e-20 ) ( 4.03371382e-16 -1.281950517e-20 2.331210305e-19 ) ( 4.067288361e-16 4.6954279e-19 5.309635517e-20 ) ( 4.06576108e-16 -4.002020954e-20 5.020459463e-19 ) ( 4.065527837e-16 7.114493794e-20 -2.493350667e-19 ) ( 4.066547279e-16 1.442483061e-19 3.321469748e-19 ) ( 4.067697392e-16 -3.616273284e-19 -3.622690712e-19 ) ( 4.095179109e-16 5.830636021e-20 -5.440305249e-19 ) ( 4.093225259e-16 -1.805471238e-19 -3.678747282e-19 ) ( 4.099378033e-16 1.577465625e-20 -4.427076343e-19 ) ( 4.092573643e-16 -1.216433608e-20 -4.58583702e-19 ) ( 4.097932444e-16 -1.120337906e-19 -2.401280302e-19 ) ( 4.123474474e-16 2.625387515e-19 -1.951709793e-19 ) ( 4.124945136e-16 1.90715662e-19 -2.218270884e-19 ) ( 4.121532794e-16 -6.400256006e-19 -3.892354942e-19 ) ( 4.11768325e-16 2.008790188e-19 -1.59742539e-19 ) ( 4.122170819e-16 -3.617573728e-20 7.076878127e-20 ) ( 4.153698435e-16 -4.280623117e-19 -1.361456311e-19 ) ( 4.153374778e-16 3.507636783e-19 -8.28088864e-20 ) ( 4.151285315e-16 4.659583992e-19 -2.759588329e-19 ) ( 4.151364632e-16 -2.034898575e-19 2.409480001e-19 ) ( 4.155161897e-16 -1.185095439e-19 2.928993972e-19 ) ( 4.191236512e-16 -2.582737556e-19 1.963322285e-19 ) ( 4.18607694e-16 2.477369798e-19 -2.327732349e-19 ) ( 4.190321529e-16 -2.013380976e-20 -3.415389414e-19 ) ( 4.19562258e-16 -2.921385907e-19 -3.685640619e-19 ) ( 4.189962596e-16 2.76203374e-19 4.962694353e-19 ) ( 4.225325107e-16 3.354176212e-19 -4.067389414e-19 ) ( 4.225545801e-16 5.386626989e-19 -2.46383035e-19 ) ( 4.229230439e-16 -8.874025171e-20 -2.867347903e-19 ) ( 4.224876183e-16 -3.781019365e-19 -2.819888147e-19 ) ( 4.222509593e-16 1.956877651e-19 3.319590929e-19 ) );

rotationalEMean 250 ( 1.294975439e-12 1.294969302e-12 1.293855523e-12 1.294518259e-12 1.294594806e-12 1.294899062e-12 1.294363923e-12 1.29483397e-12 1.29415468e-12 1.29395078e-12 1.294184355e-12 1.294425481e-12 1.294545268e-12 1.29433896e-12 1.294690177e-12 1.294514653e-12 1.295173339e-12 1.295317576e-12 1.294941022e-12 1.295272835e-12 1.295224711e-12 1.295674282e-12 1.29573435e-12 1.295200321e-12 1.29484204e-12 1.294937499e-12 1.295559137e-12 1.29511791e-12 1.295211118e-12 1.294883239e-12 1.294820462e-12 1.294930906e-12 1.294726476e-12 1.295425018e-12 1.294624397e-12 1.294845533e-12 1.294555547e-12 1.294923297e-12 1.2949964e-12 1.294876641e-12 1.295347396e-12 1.295733517e-12 1.295236645e-12 1.294076961e-12 1.294641538e-12 1.295410185e-12 1.295348764e-12 1.294780224e-12 1.294783822e-12 1.294866146e-12 1.294875128e-12 1.295032304e-12 1.294742692e-12 1.294755635e-12 1.295206385e-12 1.294754657e-12 1.294647761e-12 1.294750843e-12 1.295303473e-12 1.294847197e-12 1.294568468e-12 1.294808296e-12 1.294792226e-12 1.295146601e-12 1.294700754e-12 1.294667587e-12 1.294742249e-12 1.294831237e-12 1.294441583e-12 1.294056516e-12 1.295174281e-12 1.2951799e-12 1.295011678e-12 1.294797973e-12 1.294191606e-12 1.295545417e-12 1.29560981e-12 1.294867993e-12 1.294943146e-12 1.295601969e-12 1.294655143e-12 1.295545872e-12 1.295141018e-12 1.295547573e-12 1.295310168e-12 1.295204449e-12 1.295384346e-12 1.296147472e-12 1.295583701e-12 1.295241933e-12 1.295613019e-12 1.295094074e-12 1.295759787e-12 1.296094219e-12 1.295932902e-12 1.295899395e-12 1.295092615e-12 1.29636594e-12 1.295782937e-12 1.295994214e-12 1.295082598e-12 1.295321401e-12 1.29618723e-12 1.29597361e-12 1.295105276e-12 1.295684402e-12 1.295783772e-12 1.296154479e-12 1.296207715e-12 1.296636968e-12 1.295706257e-12 1.296272919e-12 1.296295898e-12 1.296171182e-12 1.295612098e-12 1.295898194e-12 1.296709289e-12 1.295633974e-12 1.296278864e-12 1.296424165e-12 1.29628709e-12 1.296041638e-12 1.296034811e-12 1.296264048e-12 1.29646488e-12 1.297011148e-12 1.296793394e-12 1.296194542e-12 1.296249522e-12 1.296791291e-12 1.296968587e-12 1.297237664e-12 1.296717307e-12 1.296796788e-12 1.296336408e-12 1.29642159e-12 1.297340448e-12 1.296529562e-12 1.2969851e-12 1.296895759e-12 1.297406402e-12 1.297037979e-12 1.297087213e-12 1.297085972e-12 1.297466568e-12 1.296976819e-12 1.296759739e-12 1.29713631e-12 1.297473317e-12 1.297023192e-12 1.297845055e-12 1.297284787e-12 1.296586734e-12 1.296967534e-12 1.297785235e-12 1.297469029e-12 1.297163314e-12 1.297331051e-12 1.297444502e-12 1.297299097e-12 1.297080579e-12 1.296985597e-12 1.297368102e-12 1.297554519e-12 1.296965011e-12 1.297399489e-12 1.297936565e-12 1.297156111e-12 1.298133721e-12 1.297335866e-12 1.29764762e-12 1.298033648e-12 1.298168638e-12 1.297258304e-12 1.297956275e-12 1.298000745e-12 1.298279068e-12 1.298322745e-12 1.297919553e-12 1.298000164e-12 1.298943467e-12 1.297660181e-12 1.297526462e-12 1.297751217e-12 1.297929531e-12 1.298447598e-12 1.299026385e-12 1.297953806e-12 1.298635144e-12 1.29827311e-12 1.299190647e-12 1.299340607e-12 1.298821491e-12 1.299516814e-12 1.298199283e-12 1.29892346e-12 1.298954869e-12 1.298835457e-12 1.299135231e-12 1.298575782e-12 1.299607485e-12 1.299102407e-12 1.299340575e-12 1.299709142e-12 1.299778805e-12 1.299610687e-12 1.299272334e-12 1.299557344e-12 1.300104972e-12 1.29960135e-12 1.29947421e-12 1.299948422e-12 1.299854267e-12 1.299684931e-12 1.299682331e-12 1.300180352e-12 1.3009986e-12 1.30071089e-12 1.300414123e-12 1.300656649e-12 1.301196698e-12 1.300879452e-12 1.301549119e-12 1.301444224e-12 1.301052103e-12 1.301583027e-12 1.301281532e-12 1.301677833e-12 1.301858887e-12 1.302321953e-12 1.300929231e-12 1.301838258e-12 1.301994168e-12 1.301486419e-12 1.301738815e-12 1.302058441e-12 1.301846667e-12 1.301744837e-12 1.30263857e-12 1.30267228e-12 1.302839507e-12 1.302760654e-12 1.303086891e-12 1.303175334e-12 1.303037224e-12 1.302982758e-12 1.30374198e-12 1.30400337e-12 1.30355523e-12 1.303318497e-12 );
