/*--------------------------------*- C++ -*----------------------------------*\
| =========                 |                                                 |
| \\      /  F ield         | OpenFOAM: The Open Source CFD Toolbox           |
|  \\    /   O peration     | Version:  v1706                                 |
|   \\  /    A nd           | Web:      www.OpenFOAM.com                      |
|    \\/     M anipulation  |                                                 |
\*---------------------------------------------------------------------------*/
FoamFile
{
    version     2.0;
    format      ascii;
    class       Cloud<dsmcParcel>;
    location    "0/lagrangian/dsmc";
    object      positions;
}
// * * * * * * * * * * * * * * * * * * * * * * * * * * * * * * * * * * * * * //

10000
(
(1.8714284123055e-07 7.04149531922145e-07 8.30043114128838e-07) 0
(1.50395126923026e-07 1.8520631523471e-06 5.47259577055518e-06) 0
(2.59486884351473e-06 3.7034462501658e-06 4.47666507987337e-06) 0
(1.59072189747707e-06 5.24697194067855e-06 5.94624137650044e-06) 0
(2.37606065424547e-07 5.84982913596813e-06 7.38227133688154e-06) 0
(2.61492767723288e-06 2.88901037383424e-06 4.72290112224703e-06) 0
(3.85676715874848e-07 4.23705498456553e-07 3.96678270168673e-06) 0
(1.73758914286099e-06 7.49384272927069e-06 7.80093385744857e-06) 0
(5.76188153617192e-07 1.01882903068292e-06 2.48499519622273e-06) 0
(6.57339727235371e-07 5.9420054379097e-06 6.4076185281696e-06) 0
(2.60548975523225e-07 5.41029631041834e-07 7.73024197714213e-06) 0
(3.69077035912829e-06 4.09403428177052e-06 4.09506516690987e-06) 0
(3.9803829861869e-07 6.52962494081679e-06 8.69939404190964e-06) 0
(3.18672048250528e-06 3.28686744670288e-06 6.34727184235475e-06) 0
(1.18008781583095e-06 2.80049204110464e-06 4.6037221280123e-06) 0
(9.22694417302754e-07 4.73273671660033e-06 6.30567736649924e-06) 0
(1.30174823037006e-07 3.61102519384465e-06 7.142137680317e-06) 0
(1.39001189016223e-07 2.17922342146716e-06 6.75141806251274e-06) 0
(1.10041336089013e-06 3.86903921607692e-06 8.32543789945531e-06) 0
(2.75650810327914e-06 3.29018875540037e-06 6.9944649341604e-06) 0
(1.66272226002047e-07 1.80397642398139e-06 8.23488681156023e-06) 0
(2.15927378082261e-06 3.12499580125293e-06 3.7806080731014e-06) 0
(3.27882286930398e-06 4.51021787364651e-06 5.99679859119258e-06) 0
(7.33001741604902e-07 5.84712495847334e-06 6.80199990164745e-06) 0
(8.491078865117e-07 2.18686829756981e-06 4.9334656663048e-06) 0
(3.69858871259492e-07 2.55522519707368e-06 6.31381876557937e-06) 0
(3.75345277201209e-07 8.43838349569294e-06 8.96822775735624e-06) 0
(1.27864899954524e-06 4.85383776869629e-06 7.79468890767607e-06) 0
(2.70960931129084e-06 3.01670809233199e-06 3.6763922010036e-06) 0
(7.79096698070063e-07 6.93920656125325e-06 6.99402892259915e-06) 0
(9.93873354922137e-08 8.47401208273366e-06 9.89498898895208e-06) 0
(1.14940463547539e-06 1.72138433824069e-06 3.67240171310163e-06) 0
(5.58329478899307e-07 1.53232657168489e-06 4.67359757230559e-06) 0
(2.22981690214949e-06 3.8938826444007e-06 7.36618620242039e-06) 0
(1.41040661167319e-06 2.39102662329286e-06 4.10781061090171e-06) 0
(3.06701012490862e-09 5.20537857452109e-06 6.23145889710994e-06) 0
(1.37915506584486e-06 3.70052881090912e-06 4.963496647698e-06) 0
(5.24904665080239e-07 1.79558027557556e-06 2.11321620373594e-06) 0
(1.16019370626658e-06 1.99211654120779e-06 4.51951129038493e-06) 0
(2.44739328037104e-06 3.82296935123234e-06 4.21808108828534e-06) 0
(1.58776879388949e-07 1.73314880734297e-06 7.55819119265551e-06) 0
(1.8461584874e-06 3.52993847631863e-06 7.46371481359438e-06) 0
(6.84768922685901e-07 4.33669661134227e-06 8.00086654377767e-06) 0
(8.30129483781388e-07 3.58181103364926e-06 4.73686744275879e-06) 0
(7.01123230623981e-07 2.56851899757164e-06 7.47276418898016e-06) 0
(1.17913706495461e-06 2.44926658873638e-06 3.80938999676602e-06) 0
(1.02716340925829e-06 2.64763091870149e-06 6.78470995041218e-06) 0
(7.78606009430032e-07 5.84988762078007e-06 6.95120823372219e-06) 0
(1.1977233825144e-07 5.57756997232547e-06 7.57987948104832e-06) 0
(2.7197043002019e-07 2.95589512913718e-06 9.125346179387e-06) 0
(7.85658018990514e-07 2.39580014712049e-06 4.64452493002915e-06) 0
(3.3569719344106e-07 3.90299170130094e-06 7.87496622874931e-06) 0
(3.99406208562656e-07 5.68668288699241e-06 8.45436234797424e-06) 0
(5.88730897225265e-07 2.97573351960944e-06 3.53169396635872e-06) 0
(3.16042419079912e-06 4.03252818670454e-06 5.30111169660406e-06) 0
(3.40890582070688e-06 3.7196783226797e-06 4.28801859860783e-06) 0
(1.5481731580085e-06 5.25824375678665e-06 6.32630549461661e-06) 0
(5.78349033700984e-07 9.07879219439595e-06 9.09310775675754e-06) 0
(3.49818345276896e-06 5.26625927707981e-06 5.28458605596763e-06) 0
(8.71717365087825e-07 7.54759834004965e-06 8.94127818124005e-06) 0
(3.53589795833502e-06 3.54267862438439e-06 4.21544573250818e-06) 0
(4.73955787878371e-07 1.73371839960348e-06 9.42309307086974e-06) 0
(2.49711898691789e-07 3.24819889227205e-06 8.00447473393794e-06) 0
(2.32680300947482e-06 4.70047319332153e-06 5.34354868315887e-06) 0
(2.00785636476635e-07 3.21037973906146e-06 3.2774752910476e-06) 0
(2.40146522749965e-06 3.72459326419639e-06 7.42216750998216e-06) 0
(1.05762725485482e-06 3.19559209193832e-06 8.01908409247149e-06) 0
(1.47734514746451e-06 2.23411270405586e-06 2.27990530365167e-06) 0
(8.23113218602955e-09 3.52672789730004e-07 8.27577964848691e-06) 0
(7.77325001434051e-07 7.79376982894426e-07 8.53564567952592e-06) 0
(3.43584658776736e-06 5.7153963838852e-06 5.7331876216883e-06) 0
(7.64649869524217e-07 4.57843418551986e-06 8.83593695367301e-06) 0
(4.19874370186269e-06 5.06222929008702e-06 5.16981927732905e-06) 0
(7.22057077537155e-07 5.32120120669356e-06 6.04242064560969e-06) 0
(2.53441335941158e-07 5.42670409018182e-07 4.48692655042899e-06) 0
(1.7156921523158e-06 2.39696021976735e-06 2.92197334095407e-06) 0
(5.59167922749158e-07 5.34483559847102e-06 8.2638624818644e-06) 0
(7.2592303390655e-07 5.13979245524888e-06 8.74820511194292e-06) 0
(4.67532511844002e-07 3.16325883397516e-06 8.86974064487126e-06) 0
(2.66138078730643e-06 5.28602198636245e-06 6.27048208955232e-06) 0
(2.14790256023161e-07 4.57730842459037e-06 6.06797303665283e-06) 0
(3.63494558915445e-07 2.9240553938808e-06 8.91825352204746e-06) 0
(8.28350986876441e-07 2.62440588410913e-06 8.79401308898386e-06) 0
(8.89548231673398e-07 4.06892349581424e-06 6.74646584010373e-06) 0
(7.11442376310654e-07 2.67908439548153e-06 3.75903336281629e-06) 0
(3.94459940784966e-07 5.5277934061939e-06 8.02991032197438e-06) 0
(2.9095226861268e-06 5.96354281545926e-06 7.05269151177285e-06) 0
(6.35975817714574e-08 4.00456847679589e-07 2.49470661973055e-06) 0
(1.37339764069003e-06 2.47117741631099e-06 7.39797585901068e-06) 0
(1.04107993110656e-07 2.98035478780479e-06 7.03346259562357e-06) 0
(1.30529396812493e-06 1.53452469953452e-06 4.56929260870899e-06) 0
(1.75446625610853e-06 4.97249473970879e-06 5.25028961014886e-06) 0
(1.66195379033395e-06 5.25783303278589e-06 6.64860202593827e-06) 0
(1.51567445726393e-06 3.00724926798988e-06 8.30426682824555e-06) 0
(1.55540582449889e-06 4.72233344476079e-06 5.08101932102067e-06) 0
(2.46205102071848e-06 4.71781785250702e-06 7.42215341320222e-06) 0
(3.17952299165709e-06 5.7033881724062e-06 6.49860152732303e-06) 0
(1.63904445497469e-06 2.18460879638585e-06 7.74969463416483e-06) 0
(4.26079193932036e-07 3.96074510905835e-06 6.28935973471341e-06) 0
(2.7596583291059e-07 3.39664034161666e-06 4.63845878714389e-06) 0
(2.08163289373799e-06 3.8826647657323e-06 4.90533881056566e-06) 0
(1.33026405261438e-06 2.70035152510355e-06 8.02021624459831e-06) 0
(1.3106177919275e-06 4.99212913928657e-06 7.96406288581098e-06) 0
(2.00040845493996e-06 2.72391154698235e-06 5.31712789277977e-06) 0
(2.14920099728632e-06 5.58291790329017e-06 6.16081714869408e-06) 0
(1.6708545344393e-06 7.57060889400576e-06 7.9878801171631e-06) 0
(4.48657436857953e-07 7.13130556137447e-07 7.83334845424312e-06) 0
(3.56684839264059e-07 8.36409533239669e-06 8.84896144925127e-06) 0
(2.41775043518045e-06 5.50148032903708e-06 6.70084708298658e-06) 0
(5.81435337569385e-07 7.07028226466928e-07 7.89756787072269e-06) 0
(1.01900164106526e-06 1.21450848887887e-06 7.52916865916349e-06) 0
(7.50485256106739e-07 5.34231455988698e-06 5.54998729700037e-06) 0
(2.25897387927301e-07 3.79535147883361e-06 4.44027240256615e-06) 0
(1.11809914322413e-06 5.18963394604159e-06 6.1392168679402e-06) 0
(8.52831214281462e-07 3.62171952364188e-06 4.05519173854147e-06) 0
(1.01761218040501e-06 7.07176865299775e-06 8.74553561935134e-06) 0
(2.49336910695542e-06 5.30163910743211e-06 6.6905230671289e-06) 0
(1.72705534378945e-07 6.760035674896e-06 9.22880737126418e-06) 0
(5.10456344144163e-07 1.80864177661304e-06 6.65321171011025e-06) 0
(7.11527979089048e-07 2.91615063106434e-06 3.9377322645695e-06) 0
(1.05533611080064e-06 6.19208857046177e-06 7.32934804166694e-06) 0
(5.68851761160083e-08 4.90273189645615e-06 5.8728534463703e-06) 0
(3.42338568560534e-06 4.40784283063751e-06 5.49565013509747e-06) 0
(1.57476695014202e-06 5.13318236389717e-06 6.25446978720808e-06) 0
(6.78921106662447e-07 9.07278067801318e-07 3.35036903189957e-06) 0
(4.82583233112006e-07 2.85533401122217e-06 3.29639798102425e-06) 0
(3.09190966828899e-06 5.26195380069593e-06 6.90086911118849e-06) 0
(2.362908137447e-06 6.32420979675201e-06 6.78982033515949e-06) 0
(1.41591429361165e-06 6.94426436252412e-06 8.36801053345928e-06) 0
(6.64988336743857e-07 1.21736798429348e-06 1.59979424645632e-06) 0
(7.52413994412056e-07 2.05648625479833e-06 4.4751072490345e-06) 0
(1.04479394826395e-06 1.54879483118847e-06 6.94259797072014e-06) 0
(7.49788910040294e-09 7.015209783836e-06 7.54395388204328e-06) 0
(8.91837566302538e-07 8.2699903179689e-06 8.48470010309546e-06) 0
(2.53946143841942e-06 6.30915942801741e-06 7.37363185559916e-06) 0
(2.5412697371932e-07 1.95172388318381e-06 9.6446126477302e-06) 0
(1.16170952479107e-06 2.77924253386923e-06 8.37679421386186e-06) 0
(4.24898793718906e-07 6.99107161120447e-06 8.90840834803731e-06) 0
(1.67970014674024e-06 4.88441819153119e-06 7.96484013166245e-06) 0
(1.64653695212557e-06 7.48194070627729e-06 8.20795966135339e-06) 0
(1.309021096297e-06 1.5612238955825e-06 7.52183232628921e-06) 0
(3.2438658107435e-06 3.97084438119233e-06 4.58130464078305e-06) 0
(3.1808560693916e-07 1.4245580883995e-06 7.69299674927426e-06) 0
(9.16066360983958e-07 6.98295676600333e-06 7.30055427694628e-06) 0
(1.14665937092452e-06 2.55456267015076e-06 2.76675221512003e-06) 0
(3.36552218140653e-07 1.64931630885558e-06 2.95769269836246e-06) 0
(9.85106080664604e-07 5.10273541855243e-06 7.16969809965049e-06) 0
(1.65570599155416e-06 2.92482953494517e-06 5.10845898600206e-06) 0
(2.35995619201178e-06 2.56303853498386e-06 4.02591838255907e-06) 0
(1.45348948839441e-09 3.7174185005261e-06 7.59120300828426e-06) 0
(1.51110039857603e-07 2.96049808602573e-06 7.39077493663265e-06) 0
(1.02253472285829e-06 2.84796893864852e-06 3.93889660318058e-06) 0
(2.258735409269e-06 6.04150906287691e-06 7.57089601267941e-06) 0
(3.22560016982362e-06 3.47806525298836e-06 5.30652168066361e-06) 0
(4.86339962493521e-07 8.47271812911002e-06 8.97065290650547e-06) 0
(3.66143922462559e-06 3.911255087692e-06 5.76108934697714e-06) 0
(6.25481459727215e-07 8.2872023050596e-06 8.92016617001017e-06) 0
(4.97759112767024e-07 3.25880161394048e-06 3.84001248447793e-06) 0
(1.18987523274809e-06 1.62559104711034e-06 3.87746102156948e-06) 0
(4.1246519717026e-07 4.38353036398519e-06 9.27903353503487e-06) 0
(1.40610465637126e-06 3.15046725049795e-06 3.29871540471901e-06) 0
(5.1564845787567e-07 8.90315786246454e-07 4.98808725980592e-06) 0
(1.6712769467647e-07 6.91713805283277e-06 7.02618464974497e-06) 0
(6.73888564684457e-07 1.3737952199727e-06 8.71902288208999e-06) 0
(5.59727454596963e-07 6.98914885403559e-06 7.07232775542396e-06) 0
(2.99752945813408e-06 6.36607854658335e-06 6.54675167285658e-06) 0
(1.35231772736256e-06 6.99743068098767e-06 7.24196751716386e-06) 0
(1.55759295145165e-06 5.06577611241328e-06 6.91892302095033e-06) 0
(1.53212853244096e-07 8.57856750835016e-07 5.07033540705455e-06) 0
(1.76179308089035e-06 3.05797899974573e-06 5.30678873710707e-06) 0
(1.50154408086815e-06 3.35308612162338e-06 6.81450147523512e-06) 0
(2.1616346897682e-06 3.71906124654487e-06 6.05014442940856e-06) 0
(2.99021437578215e-07 1.37806286702025e-06 3.15740700587357e-06) 0
(7.73283869821135e-07 5.94001660077005e-06 9.19911413115678e-06) 0
(1.21432205331585e-06 4.52333963826797e-06 6.19343359749864e-06) 0
(8.72266290493595e-07 3.93748663845402e-06 5.3254507434986e-06) 0
(5.61427804413501e-07 2.308893405469e-06 3.69945498186004e-06) 0
(2.02957501365026e-06 2.35175207238738e-06 4.90011326447819e-06) 0
(2.19313746932739e-06 3.50266586663262e-06 3.99244295558825e-06) 0
(1.64033246261676e-06 3.82460888245996e-06 5.65444865565171e-06) 0
(3.6793565533868e-07 2.82597830418334e-06 5.20489980417489e-06) 0
(1.8681489664587e-06 3.64512523854014e-06 4.74774432538236e-06) 0
(4.49813473320813e-07 2.60642275378368e-06 5.46576463148712e-06) 0
(7.60035290765799e-07 3.02686314358542e-06 5.15622973919111e-06) 0
(2.05448740729535e-06 3.31372670411449e-06 7.35662195734749e-06) 0
(6.93768303019393e-07 2.5649275386016e-06 3.97761894735146e-06) 0
(1.96946959325219e-06 2.10345366659565e-06 5.41650391731467e-06) 0
(3.30616497617111e-07 5.23270332708874e-06 8.08835214028994e-06) 0
(6.13718100090228e-07 5.59265650977144e-06 8.97838644417183e-06) 0
(1.84094958057539e-06 7.25062320349615e-06 7.88428609894815e-06) 0
(3.25822908497001e-06 5.00238861010482e-06 5.64684560982004e-06) 0
(1.17223961524946e-07 5.49970474394053e-06 7.8733989270078e-06) 0
(2.64904709581677e-06 4.57824444385908e-06 6.55026339608076e-06) 0
(1.30278973131077e-06 4.03454761078823e-06 7.66040124257987e-06) 0
(3.28247788201844e-06 4.69578921609054e-06 5.73941675502672e-06) 0
(4.18229878732515e-07 2.56964326177497e-06 8.3538392884339e-06) 0
(4.58814701037991e-07 3.26309094435826e-06 3.65236834454643e-06) 0
(4.03149535342021e-06 5.37792811412487e-06 5.51746210493157e-06) 0
(8.18988082390071e-08 4.63124401262347e-06 8.59135812820378e-06) 0
(1.1225379604479e-07 3.10520322995238e-06 8.50293481183819e-06) 0
(1.4346934708051e-06 4.5287050139982e-06 8.33611239056838e-06) 0
(5.09921505579811e-07 6.7899948281109e-06 6.91989929788409e-06) 0
(6.83544362688178e-07 1.68017415450523e-06 7.66509449980516e-06) 0
(2.13564336759879e-06 3.04707404888861e-06 6.53657135160193e-06) 0
(2.56341053465961e-06 4.95158878417493e-06 6.60619994846668e-06) 0
(1.43150738779829e-06 1.54172990753006e-06 2.84710418180977e-06) 0
(1.4953654184256e-06 3.7514225282507e-06 5.69282523858357e-06) 0
(4.7286833556992e-08 6.85349679699437e-06 8.30546104054681e-06) 0
(1.40504593077003e-06 4.40321710105641e-06 5.23471680956279e-06) 0
(1.58152080523204e-06 4.59398455798842e-06 7.44501868647292e-06) 0
(1.47799852664109e-06 4.46656431713924e-06 7.98636520320164e-06) 0
(1.75068281351521e-06 3.21455926193284e-06 4.68235988347363e-06) 0
(8.90904141402533e-07 2.79895889412286e-06 8.53801779917196e-06) 0
(1.61179553625654e-07 9.20873076261723e-06 9.61772585172183e-06) 0
(2.04341964019294e-06 3.26204177698338e-06 5.02898061067624e-06) 0
(2.01364915306895e-06 3.1733344756128e-06 3.62232951650027e-06) 0
(2.0583526608835e-08 4.42638269150303e-06 6.99674740512377e-06) 0
(9.48263858766705e-07 9.52493121202433e-07 5.51950113880038e-06) 0
(1.1820299163718e-07 2.04947933752917e-06 6.2149196274426e-06) 0
(1.10421936525015e-06 6.24870899589357e-06 6.5700742841187e-06) 0
(1.27930345095121e-06 5.52847224433018e-06 8.16647394517938e-06) 0
(1.25928893506176e-06 6.29541574105611e-06 6.5483117694763e-06) 0
(2.20195183870953e-07 6.79222194880408e-06 7.03865395559982e-06) 0
(1.30667102996517e-06 3.2053211534196e-06 5.29497059162301e-06) 0
(2.84304482608162e-06 3.49027648426366e-06 4.0968229513137e-06) 0
(4.11584329626376e-07 5.17580080329593e-06 9.04458729547121e-06) 0
(1.17050033376627e-06 2.98587026380725e-06 6.91821122012621e-06) 0
(6.08557486942178e-07 2.95738099176114e-06 4.087299916704e-06) 0
(1.09522874251775e-06 7.1885112527327e-06 7.4451008196567e-06) 0
(5.64926520317588e-07 2.82734078592492e-06 6.27335145059478e-06) 0
(1.31821424934044e-06 1.9914856606446e-06 7.62453257824925e-06) 0
(1.5444529693653e-07 4.01330688561135e-06 5.06035124330733e-06) 0
(1.10606858278205e-06 2.82021907117722e-06 7.97057424728282e-06) 0
(2.15339982337161e-06 3.8234486722771e-06 5.74588787446819e-06) 0
(4.90743382866139e-07 6.72587232365078e-07 8.08944275061078e-06) 0
(1.15550261126637e-06 7.02885745778113e-06 7.36474017023143e-06) 0
(6.76711170338429e-08 9.03240140012107e-06 9.64353141640762e-06) 0
(3.3935047223005e-06 3.43611932423395e-06 4.07745132150046e-06) 0
(6.33950444613678e-07 3.97577627539293e-06 8.72329961439524e-06) 0
(4.08207098976385e-06 4.46306992191817e-06 4.47092482162775e-06) 0
(7.47926477985299e-07 2.13985798464565e-06 6.26858303034863e-06) 0
(1.01011043895877e-06 3.7331377740081e-06 6.56856787431956e-06) 0
(9.20657679074406e-07 2.75550203536605e-06 8.56304486524218e-06) 0
(2.55329354745276e-06 3.54326291422806e-06 5.61165546364142e-06) 0
(1.10138185713234e-06 1.82770138431403e-06 3.13623058669903e-06) 0
(4.76211895475611e-07 3.69183192633637e-06 7.34836135036465e-06) 0
(4.35488518712663e-07 3.65732857814235e-06 6.97158497821336e-06) 0
(2.288120348455e-07 4.85580141881865e-07 2.40609704688842e-06) 0
(2.33148007875856e-06 3.83054349015309e-06 7.0749912745052e-06) 0
(2.02544463323653e-06 2.34491799298779e-06 5.44982137124682e-06) 0
(2.11517486288541e-06 7.0837892671714e-06 7.62185287171969e-06) 0
(2.37099150140292e-07 9.90214982507727e-07 4.99494309914928e-06) 0
(1.26647631112791e-06 3.65492256242865e-06 7.49599574829025e-06) 0
(1.3223233634692e-07 3.72753795017241e-06 6.17126795164177e-06) 0
(6.31270046673027e-07 9.12013114425303e-07 8.96262126685249e-06) 0
(6.59033602285337e-07 2.36378487238932e-06 5.98826819454709e-06) 0
(7.67218831318513e-07 4.16163870502155e-06 8.70575327558216e-06) 0
(6.24534929970384e-07 5.58570437973623e-06 7.76883346263853e-06) 0
(1.90868297842979e-07 4.55536863372013e-06 6.93626639078362e-06) 0
(2.13024520722627e-06 3.90316448649532e-06 6.5898560472176e-06) 0
(6.13285124620777e-07 4.91712711767347e-06 8.78313590140456e-06) 0
(1.30339656706882e-06 7.69562649096111e-06 7.91878053071168e-06) 0
(2.69141406138465e-06 5.97887109713883e-06 7.29603420593568e-06) 0
(4.07972927507156e-07 4.66741412239403e-06 7.88424058138508e-06) 0
(2.38640063627122e-06 2.61368284574173e-06 6.4511456704559e-06) 0
(3.744062254382e-06 4.55323203264758e-06 5.22019312820309e-06) 0
(1.80178092765226e-06 3.63836971363751e-06 7.72831971284853e-06) 0
(1.06419139795525e-06 2.78074426051406e-06 7.72837542612257e-06) 0
(2.8208601394539e-06 3.26728396825709e-06 4.93125856271375e-06) 0
(1.14769863810503e-06 3.70079177653489e-06 7.56909649886184e-06) 0
(3.62767832157603e-06 4.80369841249283e-06 5.72541752611444e-06) 0
(1.4093726367455e-06 2.80525824273775e-06 4.28686709704399e-06) 0
(1.75572958563022e-06 2.78676638017467e-06 6.36598039775942e-06) 0
(8.84500319880175e-07 1.9192327495367e-06 8.69205618884504e-06) 0
(1.41889205940261e-06 4.36372158100765e-06 5.71886162390685e-06) 0
(1.72854782199044e-06 2.03107609355468e-06 3.41418961754661e-06) 0
(1.078788912e-06 1.11654841902267e-06 7.70175655046655e-06) 0
(5.0173433998653e-07 2.26153010910759e-06 5.7852450151689e-06) 0
(9.55144368892587e-07 4.89949428669329e-06 7.75859802364126e-06) 0
(4.21763102963558e-06 4.43601723324401e-06 4.82596894725878e-06) 0
(1.36656364035179e-07 3.72919519563748e-07 2.27610660242847e-06) 0
(6.93100843802519e-07 5.21619215579371e-06 8.47356476030115e-06) 0
(1.01430944836398e-07 2.43666257980996e-06 9.80480767517369e-06) 0
(9.6690035416513e-07 4.98002857433031e-06 7.78011286037133e-06) 0
(6.94165587296869e-07 3.03280963118594e-06 6.94898752021418e-06) 0
(3.8953695981138e-06 5.16940762731903e-06 5.59677850197101e-06) 0
(2.93083240966334e-06 3.83002384307245e-06 4.08766490203286e-06) 0
(3.77552057094151e-06 3.86482330923025e-06 5.61070500234587e-06) 0
(2.68771525839552e-06 3.16474711857902e-06 5.5397370144796e-06) 0
(2.14130120242448e-06 4.40703842715429e-06 6.42924658864914e-06) 0
(8.79727459073543e-08 5.8941567274818e-06 8.24479358305004e-06) 0
(1.19924794782431e-07 7.75379556196095e-06 8.03321153427879e-06) 0
(1.0176397236498e-06 1.16502911326196e-06 5.65767122536505e-06) 0
(2.21512315124297e-07 2.42483228250538e-07 2.56004891729926e-07) 0
(3.27408287661424e-07 6.09397641988045e-06 7.09918737716452e-06) 0
(4.15299927169421e-08 1.41376285528052e-06 7.89565871692856e-06) 0
(1.10136566084302e-06 4.95958053983257e-06 7.61877272104309e-06) 0
(2.17032499100176e-06 3.95088145071553e-06 4.28315495624622e-06) 0
(1.31335146537053e-06 6.70752960212839e-06 7.59043157095048e-06) 0
(2.60089008606386e-07 3.85358028172714e-06 5.37363891342256e-06) 0
(2.6579087894064e-06 3.8185631530421e-06 4.99380760951057e-06) 0
(5.00711163164311e-07 1.64179284051595e-06 5.91499937209019e-06) 0
(2.77029992680243e-06 4.01180464326936e-06 5.84659466749654e-06) 0
(1.81173497831454e-06 3.29114023632252e-06 5.85578515179643e-06) 0
(5.17697658238223e-07 4.92343112622629e-06 9.03335833898579e-06) 0
(9.24835265275217e-07 4.89430853583047e-06 7.08030525679027e-06) 0
(8.42359029477553e-07 3.98811243069664e-06 8.65696286372062e-06) 0
(2.70996623187861e-06 6.83713249010564e-06 7.02281634616787e-06) 0
(7.58802540521355e-07 1.59016171017507e-06 9.16368458076514e-06) 0
(8.73131006744199e-07 1.40178044758043e-06 5.10996266592455e-06) 0
(3.47020833004432e-07 5.74142694123259e-06 9.28810409573489e-06) 0
(1.68155919358828e-07 4.29099731054468e-07 1.61106954888547e-06) 0
(2.22883427618479e-06 4.03326189749576e-06 5.93982873211497e-06) 0
(2.51441831734928e-06 3.27259926598311e-06 5.00722969001705e-06) 0
(3.94860817373958e-06 5.49089534745326e-06 5.9725437415314e-06) 0
(8.81466400036768e-07 1.83966224706404e-06 2.72759018637343e-06) 0
(3.41372882366064e-06 3.63295816431632e-06 6.08647304133489e-06) 0
(1.08908882435534e-06 5.48637674155595e-06 5.59810418866375e-06) 0
(8.43484063986804e-07 1.33630787414221e-06 5.6202376853914e-06) 0
(1.21159119822897e-06 8.12854919501772e-06 8.73567347118913e-06) 0
(2.74272287711495e-06 3.94331200951429e-06 5.80663743157301e-06) 0
(3.76950455921472e-06 3.82687960196447e-06 5.64527807964749e-06) 0
(1.21799915174121e-06 4.44864318663099e-06 7.15897567681965e-06) 0
(1.26800136953804e-07 2.7438794192636e-06 8.84292515442102e-06) 0
(1.26407104411202e-06 3.48104221611719e-06 5.64310250808562e-06) 0
(1.04803649046071e-06 6.99451046626203e-06 8.08385650590482e-06) 0
(1.32972331020808e-06 2.10226287217248e-06 7.2657272013465e-06) 0
(1.66011221040611e-06 6.13047379765307e-06 8.28987417623131e-06) 0
(5.87660155087608e-07 3.46526477050928e-06 6.64562288482225e-06) 0
(1.35657913247842e-06 3.95632538906023e-06 6.76811519750311e-06) 0
(7.71052069402014e-07 4.60843066905552e-06 5.07907954819567e-06) 0
(1.46076078703606e-06 3.60347710923486e-06 4.3275251523743e-06) 0
(1.49598618962118e-06 3.20914058472225e-06 3.58995865550741e-06) 0
(4.79968868210872e-07 1.71008827731951e-06 9.3433054121437e-06) 0
(7.04551339914605e-07 2.93790560563592e-06 8.21469046555906e-06) 0
(2.07371864606078e-06 4.88795185216226e-06 7.56634759561308e-06) 0
(8.72289140801197e-07 5.21588348636021e-06 5.57517081124859e-06) 0
(4.32649498983491e-07 1.34755009930155e-06 5.60220002833466e-06) 0
(1.36901472257518e-06 4.91707213429676e-06 8.52263914957129e-06) 0
(9.50354530653126e-07 3.13988677752706e-06 4.20151686590833e-06) 0
(2.60792556804399e-06 4.09595287016826e-06 5.55861913921712e-06) 0
(1.42933570816274e-06 6.63276402092231e-06 7.58834786797357e-06) 0
(2.62282600327399e-07 5.31203182966236e-06 7.02514767526553e-06) 0
(1.56915949513694e-06 2.04153120621095e-06 6.55233429863023e-06) 0
(9.09871160162066e-07 3.06670685789188e-06 6.37167500848788e-06) 0
(1.83277313448054e-06 4.5190118984261e-06 5.69950333918785e-06) 0
(3.81428314703864e-07 4.99211372917364e-06 9.27185233657058e-06) 0
(1.66053720357908e-06 3.92275534562405e-06 7.52607225917696e-06) 0
(1.24219145385597e-06 5.96829988821428e-06 6.58048867844476e-06) 0
(3.06493056062489e-06 4.11119752750302e-06 6.92711147477304e-06) 0
(3.87340676982699e-07 7.01202184675887e-06 8.29198183633439e-06) 0
(2.51069099456622e-06 2.86180821518574e-06 4.45665337909052e-06) 0
(3.29380110111964e-06 3.94100654346955e-06 4.20647394357891e-06) 0
(1.29554806886665e-06 5.65409726990877e-06 6.04961329169404e-06) 0
(9.77354032391826e-07 1.46132549732359e-06 4.59520006800103e-06) 0
(1.31009328473565e-06 4.40445848653107e-06 7.99559233778984e-06) 0
(3.54487614169289e-06 5.09683735198449e-06 5.55156068094833e-06) 0
(5.45361436402469e-07 6.330563332852e-07 6.00800711330384e-06) 0
(9.06188980407752e-07 4.3555173119565e-06 5.62016237546535e-06) 0
(3.54381459629032e-07 2.21675024983917e-06 8.16182593108323e-06) 0
(4.49347119646983e-07 5.24014381519097e-06 6.370857340341e-06) 0
(1.86731475872168e-07 1.99902275795447e-06 9.39212118305422e-06) 0
(5.3339070304137e-08 6.20057443039569e-06 8.37696571996721e-06) 0
(2.63474728620581e-06 2.99797097979957e-06 4.11859669930971e-06) 0
(6.47125558658761e-07 3.27999914455519e-06 4.29584194100931e-06) 0
(2.10469567775794e-06 2.41420575923515e-06 2.8849341395699e-06) 0
(3.20569603919973e-06 3.48484356977904e-06 5.73720129375198e-06) 0
(1.19220715034224e-06 3.84001415577988e-06 8.24276522546772e-06) 0
(1.29921401599553e-08 2.58645699275757e-07 5.27548453196621e-06) 0
(3.01129719922804e-06 5.65348923978485e-06 6.19107030481784e-06) 0
(1.02751334588733e-06 5.33462539756423e-06 6.88754618499159e-06) 0
(3.34459872984603e-07 3.09027086740223e-06 5.39595058637381e-06) 0
(1.01695906862089e-06 3.80257804611469e-06 4.34658609548508e-06) 0
(3.58883646114474e-06 4.6163721150495e-06 5.90657423987672e-06) 0
(2.89536839488134e-06 3.25672091705114e-06 4.437993768127e-06) 0
(9.77409612133844e-07 1.12405905746423e-06 8.21130979560467e-06) 0
(1.08174389965713e-06 3.32846547860415e-06 4.37130189149718e-06) 0
(2.46056866724478e-06 4.611360294449e-06 6.0235644743374e-06) 0
(4.43071412041274e-07 1.46382208414339e-06 7.39024618712575e-06) 0
(3.20328013073896e-06 4.92116266540302e-06 5.59448978038722e-06) 0
(1.04636811826735e-06 2.14545601709405e-06 7.49068555001086e-06) 0
(1.7530107405797e-07 2.31759166960959e-06 3.21124654873646e-06) 0
(5.73292893886848e-07 1.54370530575077e-06 8.11523104019551e-06) 0
(3.37792536180093e-07 7.96844370581022e-06 8.95311571659486e-06) 0
(4.0033629092326e-07 4.10113723914565e-06 8.36629294782915e-06) 0
(1.39493060493958e-07 1.23213491370619e-06 4.97366010459798e-06) 0
(7.96686349049392e-07 1.61249368837803e-06 7.48981706408506e-06) 0
(1.93183495586791e-07 6.41580726291574e-06 8.80263619001978e-06) 0
(2.52309912977129e-07 2.40290881835106e-06 3.69781667840607e-06) 0
(1.61615000422731e-06 2.29142803780356e-06 3.62876694504962e-06) 0
(1.57987067778487e-06 2.96122861660516e-06 5.97877508165764e-06) 0
(2.81702986976081e-06 2.93972335586895e-06 4.02101357985673e-06) 0
(8.66131581957497e-08 6.49768680788826e-06 7.39407212777641e-06) 0
(3.26998141104644e-06 3.28129972557976e-06 6.55586953947596e-06) 0
(1.15955291961273e-06 6.87717805866692e-06 8.49620217665132e-06) 0
(1.24532869324945e-08 6.56629508041876e-06 9.27848255832833e-06) 0
(1.20956690727544e-06 1.89290852041511e-06 8.72919080902937e-06) 0
(1.17847238581387e-06 3.71035959063946e-06 8.55067576690878e-06) 0
(1.0106379395903e-06 1.71149320860698e-06 7.44230886614977e-06) 0
(2.13690930053918e-07 1.51985241257046e-06 4.76557384730848e-06) 0
(1.17670830207766e-06 8.08446362055518e-06 8.37445950209139e-06) 0
(5.19650404944283e-07 1.73317065787417e-06 5.45204789860241e-06) 0
(1.93328332738654e-06 5.37968373653284e-06 7.92021062053541e-06) 0
(8.75658181067163e-07 2.07702092938307e-06 6.70970872309402e-06) 0
(2.7227135139553e-06 2.84574069073193e-06 5.31978583623273e-06) 0
(8.06148758521523e-07 1.59887009812998e-06 1.76533363194352e-06) 0
(2.51296443326874e-06 2.51432912964672e-06 4.06784067559466e-06) 0
(2.87522117811072e-07 3.29888318299815e-06 8.98613855740017e-06) 0
(1.31778296979713e-06 1.71192663718328e-06 4.89535195013525e-06) 0
(1.71245811142004e-06 2.74954431613367e-06 5.59917430145831e-06) 0
(2.77451554551162e-06 5.80825654030614e-06 6.62982624512894e-06) 0
(1.33460092583725e-06 3.85995348360982e-06 5.49800539760813e-06) 0
(1.5246022030278e-06 1.53635684526078e-06 6.49036136989603e-06) 0
(1.93477192260827e-06 7.95723294867424e-06 8.06282735938089e-06) 0
(5.71501914034673e-07 2.78504753577858e-06 5.29825878046081e-06) 0
(2.26295521862809e-07 7.7463079286904e-07 6.26581552933747e-06) 0
(1.10307293722991e-06 2.24880909546526e-06 7.50641097171007e-06) 0
(1.92034680657423e-06 2.28211881067134e-06 6.31042059441585e-06) 0
(2.62651819219444e-06 5.23242492937802e-06 6.09846061668995e-06) 0
(3.31616441670013e-06 4.29221363823922e-06 6.29061620593211e-06) 0
(3.04075639166269e-06 4.04251821248446e-06 6.13190380419448e-06) 0
(5.94480438053662e-07 2.64309340214934e-06 7.28721975054631e-06) 0
(2.37158896402203e-07 2.46004492878901e-06 7.92153750679292e-06) 0
(7.58526376879729e-07 1.225998598125e-06 6.06251675147444e-06) 0
(3.05614998320577e-06 3.25699383629521e-06 6.21563181538791e-06) 0
(1.3273447568041e-06 4.78666110980749e-06 5.80251160315863e-06) 0
(6.19149293414356e-07 3.46080814266555e-06 7.27210087830647e-06) 0
(3.929068208069e-07 4.29707772997734e-06 7.96226552447802e-06) 0
(3.04487334307821e-06 3.35378114255613e-06 3.78496919133541e-06) 0
(7.3015448216248e-07 4.52477281536213e-06 5.19207978231039e-06) 0
(1.32923152155035e-06 4.48680436591863e-06 7.29028005194666e-06) 0
(1.61883551847749e-06 2.10769239310023e-06 6.70744930454857e-06) 0
(1.64516850455877e-06 6.2037017761932e-06 6.74412573040959e-06) 0
(1.37643431176411e-07 5.21593668976248e-07 6.02355750700324e-06) 0
(2.50229318015966e-06 2.6729115974983e-06 3.39871617522229e-06) 0
(5.92876059668779e-07 1.90494420149934e-06 4.10435407876383e-06) 0
(8.48624691626849e-07 2.53182455992791e-06 6.60084011594238e-06) 0
(2.06347541468661e-06 3.14980767461117e-06 5.53384799666285e-06) 0