/*--------------------------------*- C++ -*----------------------------------*\
| =========                 |                                                 |
| \\      /  F ield         | OpenFOAM: The Open Source CFD Toolbox           |
|  \\    /   O peration     | Version:  v1706                                 |
|   \\  /    A nd           | Web:      www.OpenFOAM.com                      |
|    \\/     M anipulation  |                                                 |
\*---------------------------------------------------------------------------*/
FoamFile
{
    version     2.0;
    format      ascii;
    class       vectorField;
    location    "0/lagrangian/dsmc";
    object      U;
}
// * * * * * * * * * * * * * * * * * * * * * * * * * * * * * * * * * * * * * //


10000
(
(-191.228055890929 -365.14469469091 443.047699610103)
(-1335.72435976867 728.239068634166 -1090.53039818146)
(285.347686589888 -229.553243961627 -1081.27012146485)
(-1115.16258539824 -93.175685249928 16.2075515988546)
(-632.590498921125 -76.9179360989394 -362.233037561996)
(-313.753644420179 -548.212127038164 -882.207747381202)
(-154.887653057987 -30.2755614496319 339.613312057909)
(729.656397518422 -419.392751021619 -705.528192758016)
(-1344.31863037567 -40.6873267707651 726.044840158861)
(-23.563668982122 634.5835259557 -124.420774070862)
(-463.404993734807 -1647.88889581586 -446.38120116053)
(106.858345542744 -30.2614051770254 -95.596126873674)
(-201.375125771588 -802.958609074102 542.886373157142)
(-1020.6871666555 583.000624656428 -1088.29878109173)
(-24.1099581535445 781.852625610323 106.990035536283)
(334.016771687814 -8.82729893056461 -451.396668039768)
(-17.0066018038151 129.093187622903 -781.199094279329)
(-368.18697873961 638.307255285833 214.560198486845)
(110.268890259302 -233.261250620642 198.66430606244)
(234.497376977045 -475.840719750986 66.0637478636585)
(-548.654727904576 1239.86292507275 433.440037842196)
(-172.779340840222 227.437814310055 266.836009817887)
(-104.603464301947 160.104396239536 -883.778629809886)
(365.491797653903 -244.567710614978 -109.928402879755)
(172.187067112062 603.072623052645 1342.85909564841)
(-474.767979091185 -399.326936874719 -766.699545896568)
(102.470526474893 147.105014462198 -857.391839085846)
(445.562477887258 -499.764778803546 471.697515610578)
(-96.7984250577677 -389.311059222116 -252.763121649089)
(700.830764201338 -209.150443216672 205.50968331597)
(384.469002214315 -988.965782376175 -1127.33787863646)
(-1389.16854117403 -720.946943878312 -279.084652858868)
(196.697770244566 373.648436868867 590.614022199306)
(-847.087106965627 -631.810483636958 -557.779572956075)
(310.421361442439 1342.19898051755 -861.869194972314)
(-75.4507457581225 521.440416871766 -447.405644732831)
(-979.242562584749 37.2646382145133 -277.639531992864)
(732.943743443629 153.130268046501 -293.723167420198)
(75.7144938519314 366.056406137563 -970.455371604801)
(538.339110062827 -70.185232192203 -444.548015684745)
(-164.241647839976 482.619435265466 1520.73742813458)
(386.775546534993 81.8239708021952 -637.380022823025)
(-383.919043366468 628.629801280122 -375.426244902078)
(399.460924169281 815.312560656363 -115.561779916003)
(232.399095139984 -1282.29099155685 -656.848765582603)
(238.517273540719 -862.992916926763 -197.783194440669)
(-209.005286617318 -566.206347730599 -110.910789359992)
(-1171.17718195089 555.558158503144 -378.797323408258)
(-162.401601651413 -159.232094975375 -1270.23631400215)
(-517.897500455769 -37.9914669707871 706.132564190001)
(1342.40497899174 -998.342364483445 -957.393333403497)
(-785.476501326895 23.3259917984288 358.359684095859)
(-147.674846786272 926.802306582645 -185.830482344836)
(-208.628093119029 -1043.91772246649 617.060831772377)
(-340.960233453462 535.22684503864 -1074.21348303062)
(965.384909297038 -370.553052897397 220.976412027034)
(1045.13198466356 1441.91305919761 -401.504550245132)
(-43.3241408099291 16.3600027581221 -241.66730594165)
(592.944101415571 0.93782767605005 -138.109558583274)
(157.500402349558 1485.99256794898 -10.5208403151374)
(-1324.74737477891 291.068952651001 512.496066741821)
(-681.428768592941 -120.735495221454 66.9027667725239)
(-316.491622411603 -723.198994592025 450.278597042793)
(80.8401213470299 -739.033398245687 318.793367606085)
(816.985412753621 -167.007963548211 -469.786809340352)
(19.5710342782116 -484.674019730887 188.110550352757)
(1102.22975520754 -6.83598638824373 330.770602704637)
(608.674140232379 178.292742607912 -535.725170678972)
(366.215384343311 -281.165165859098 112.016958327468)
(-348.42560390661 1543.52323951341 963.753651758954)
(-71.398412599437 60.9915937707048 220.574715984488)
(-374.167440918174 427.151493925094 95.251883028822)
(-866.473464438624 -889.357148927017 572.619651952014)
(-306.922734054653 -1152.13349228538 -180.933443655204)
(321.191925171503 228.471862860051 841.476416691142)
(-91.1822066526613 -258.165169371291 1560.45614836165)
(110.230011849077 -1296.3546620775 676.170354194686)
(-270.51873616519 166.487524834793 696.981914920544)
(384.680671309384 -73.2612101011942 -53.3109578782357)
(351.954516644654 -359.547560554721 -253.079816759306)
(614.242503811441 -98.4074795606864 -109.617158129038)
(-141.961874671708 -222.077521610418 501.722099319516)
(-121.10674764945 -277.609613454626 -589.139453278251)
(956.356244849822 -156.389547345672 -40.6443874979378)
(-722.486456498279 275.470792396301 -7.30391843179878)
(483.204246008298 -82.8878103864428 201.770346061405)
(-516.838692748846 -536.562504064916 179.503644654683)
(90.0555872937508 -1358.4178654394 914.579473408118)
(211.831446060386 -30.425148348793 958.468460512589)
(-554.499764856086 831.911358080849 289.543959186191)
(-423.662247737276 271.305119211119 151.67122973221)
(1113.04963086604 1008.23673180081 800.400059303179)
(-88.5568080587445 -620.257346609754 722.458534379575)
(151.530593617264 520.965736503109 764.027055939884)
(546.10260229238 425.730480916027 800.303651474909)
(214.401093017663 -436.408215558364 -976.835321332249)
(354.217300921529 -279.966228923325 1347.30670659011)
(1261.837980019 -63.8453449669278 -225.284758143369)
(-565.0452128259 541.579208603932 458.483284852517)
(1115.67653005014 -844.484209436768 185.723136508205)
(852.842773523461 491.616506406726 747.648914603477)
(-877.90458137554 775.631954201756 1007.47608992603)
(691.518431384743 -260.632371156625 -303.25541085454)
(837.212404860426 859.436049356188 506.306913148693)
(-674.391712139651 -488.428169869598 2125.98885488916)
(861.020734112264 -107.814017380772 -442.809883266481)
(1290.73706170366 222.475908646836 515.876385277754)
(-9.55777554760479 -29.2760317353081 -573.338085933398)
(922.44192219299 888.97319993297 0.288668192496332)
(-754.350111562198 465.271615012888 694.312287737134)
(1190.25403854537 -786.352254116033 -235.022823846315)
(487.698212727834 -434.519310164758 323.954356237675)
(8.68279191111882 -214.331839374937 -505.256564783111)
(144.02129865495 -29.0694327023466 -1269.89376017413)
(114.615545503643 -283.484768286254 -392.593182984702)
(699.421714257292 -389.966159472123 -7.71832110642943)
(-1203.46469155615 -416.046719588461 -620.889143622351)
(835.590209942792 -384.791246857266 -1252.29934654589)
(-148.794863189499 224.047941382459 -203.693478284321)
(549.225103362676 361.760987766596 -202.301288210026)
(209.290182976673 543.906315283459 -376.626102615957)
(-824.419800863061 96.3438193545555 -621.639613532475)
(106.464712528076 169.560460974431 476.502592015592)
(-750.39588625889 -414.307221819647 676.72964357979)
(727.049365772267 -1329.66991334137 1596.06480382404)
(-331.645155203355 406.977588771483 -418.263188369683)
(-1256.62219890277 -773.179285410211 259.241284827206)
(-65.50442589419 -690.858097188576 317.487144707402)
(443.037471098707 387.330486356569 -112.274523492331)
(860.321378864151 -989.344742044251 -304.752019270523)
(-796.063904057937 436.099715117619 297.92863092281)
(1289.75614030096 345.405360972676 1146.34373276624)
(43.9818241326399 -1075.49192230627 -115.315220434784)
(276.089053083882 75.7549241971636 918.143971027287)
(565.132462759933 -171.668827568703 -1087.03290769519)
(69.7455348423068 -345.143710300883 -314.711207374416)
(-1424.01106042262 -990.432932710285 -242.641527665371)
(339.078708829424 487.750339269774 -89.0094776906964)
(-1205.54216758484 889.823791549123 -116.92363632763)
(-1342.77029750472 262.800847645855 898.198030648075)
(-748.745198729378 -255.283178608681 -937.093171272432)
(70.2526401129947 -503.243413508902 -179.429899093772)
(-187.451747928905 57.580403481082 15.6922656138058)
(-140.360516417583 399.191361951181 1008.24846289985)
(758.827977352124 -128.080165121905 -1465.88842733207)
(59.4207135028635 12.4315670770397 -1257.42475262898)
(166.071202410294 -10.7357025595717 508.116409773)
(-1133.2889831708 670.282395673294 72.0723301004142)
(240.754946236808 -466.880388285413 -867.414061376753)
(677.320568147562 158.879371226941 -145.60529534999)
(-731.560709394055 1242.33701559535 142.266813923027)
(-617.413902937144 59.1730823434687 455.773131706116)
(117.37873775535 639.288999220947 -841.32336638296)
(-395.134362423269 827.124887141673 -155.422813189244)
(-803.633234755225 840.969153967438 10.3784368452263)
(397.262839611285 -941.007056447866 -296.656647889694)
(-623.92897558194 -178.477774835466 469.918485354896)
(-703.537676212033 -646.551887638237 -1383.11426180338)
(553.387482106367 -100.420085307475 -506.642328209737)
(-744.225167340703 -679.197148151262 1067.56987812589)
(-557.712060098757 -506.919363238116 -675.526261685735)
(541.272640717374 724.324204090598 145.23328806277)
(-673.794826776019 1209.11208495483 -217.044806009787)
(285.210688357798 15.8376332948056 -682.776084404826)
(-6.57140602009844 -694.84573372837 572.477906821224)
(564.697119637328 -1196.94984954291 1540.53067524361)
(-273.433981002466 196.810362083289 97.6413528144553)
(363.935371807382 641.387038658378 680.092121164018)
(-481.004829462895 216.520910276459 -207.467840136559)
(475.974477218451 900.380810391915 22.828544416564)
(792.392755514123 230.896298026848 -372.184901923946)
(681.662308375263 399.311337072275 1163.10485404214)
(869.699444257374 -801.106776091649 34.875060912163)
(-337.933055248396 1264.52953889444 736.956072210147)
(-548.066653870795 84.9246703945773 -1312.27356397061)
(650.446427514422 -645.68774226546 -1036.80885445194)
(-15.0049303479849 -471.718591654158 -1012.02152451702)
(84.47348778501 -755.903178818784 -452.33434759098)
(127.707249144417 -652.131869653917 112.57018949556)
(-884.897020001499 -291.347161615954 281.897108725876)
(-727.315793392219 137.454189025887 247.144218641515)
(536.701628537591 -596.118135494463 -289.424609748914)
(302.125631261295 864.427860960706 433.001287333245)
(-97.3444173335322 417.689729165606 21.0179427949631)
(23.037126890517 -1316.63147401101 -320.762671973871)
(500.144410519216 333.397643388138 146.420817870321)
(309.575834387846 391.758019692883 -424.908615430486)
(301.63718696335 80.4527482531399 194.59011300304)
(628.334674934859 29.2750818601329 -642.210168077228)
(-437.396949719323 -601.786773029167 -1659.70293602789)
(872.626940515997 -623.409001609262 -437.19246192992)
(915.862040936938 -625.929965995907 929.818050329741)
(88.4375813471425 -1255.74162719968 596.659410932326)
(663.046064801065 -652.980240844726 91.0454572289371)
(-92.7293824950336 -201.855657892338 -339.118408584261)
(-828.359541974006 51.5555055747605 -490.125836887253)
(-966.183592757203 -438.661724075285 444.610490365838)
(-257.182554292568 36.2989112871611 -441.15825967772)
(501.047058869788 16.9749827392631 -15.274889441362)
(525.957379771168 982.877179028783 -214.442273516353)
(-423.508194175856 286.96468357905 -586.911531742935)
(13.6933480618701 -93.4518108477894 437.417962011208)
(539.368690688218 808.784026554907 -1063.60609667456)
(-743.949343118379 -528.634785410021 -214.642386057614)
(353.235305451824 422.867837643647 460.164214256016)
(-778.675741877493 -73.960741891346 820.469217278403)
(701.297943526972 -728.411000290073 790.665796300964)
(110.559481792287 410.127945172073 418.249932681653)
(-935.902755212165 160.055199695671 338.203241452466)
(303.623522400982 548.569860880246 -580.367044257221)
(-180.984353819671 -337.27169453237 323.936558540216)
(386.061280302178 -158.089728719039 -1293.7159043964)
(-1826.83143596434 771.492534700929 1057.36781786331)
(-1019.27788236035 -1247.55041339373 644.471338093573)
(-587.725697471644 -1248.81413433743 -721.685309047992)
(-81.3337098113029 -701.926102098263 265.731587387896)
(1130.35393308174 70.4870458200332 -204.826883078478)
(-796.590405442023 93.3856061738453 -61.9612234524821)
(419.72327495515 -302.970244789796 739.082022511631)
(838.635366125818 260.970387579802 450.600557090647)
(542.804342812391 497.927681514072 -684.904991399883)
(-242.64073109663 -54.2367239279166 -1039.41527520425)
(178.921299793241 970.289195778538 1087.66318013331)
(-535.118957872147 -259.952059239151 268.22336121018)
(-443.405384100548 -631.281926273763 232.037146472823)
(-1181.07087894625 -298.345044246759 -70.7171316287548)
(-374.123049874008 262.489744872633 -580.224040452676)
(-1163.39239614483 -735.006879755578 -116.757361672468)
(-689.355214311265 -151.020837582845 1281.32223993745)
(-3.81944241765791 -219.515093074831 972.661304861072)
(530.994653185563 -1087.76481865302 895.982987998795)
(-815.192096345362 246.156948514336 146.781255944408)
(-507.327972922437 10.2084800829764 730.550876479017)
(275.955029215338 -80.8867262608294 -338.059958638146)
(-720.77173724103 475.328855038198 -61.5234445695471)
(890.219778119823 724.450820466315 -545.281500536418)
(167.37506111617 181.055452613303 -83.1209843523862)
(-574.638970791235 -759.530619595921 -216.412728805971)
(85.2963524565939 127.3357232778 1535.71967077798)
(-574.274082613948 1597.79982916896 1138.40609903025)
(314.380105338498 345.721846652759 -61.1021016853069)
(-30.0449971150837 -705.65303919587 388.468239754942)
(-148.690032578263 -300.349116288378 632.169872578448)
(-244.639622234457 -1163.08614018898 674.690903943838)
(173.422577873095 -433.502575027492 -965.993365922788)
(61.9667556335595 299.971784801358 -105.142741715607)
(-309.621040100957 1152.44022453688 22.7745199909882)
(-542.360377777802 -591.832043305116 34.701391573002)
(1242.4787505785 -457.652577984344 -1380.05923123039)
(920.24581518114 -484.899675652684 -922.400367569035)
(-4.09883399871779 -162.584281361828 940.951854898546)
(885.606693606486 -1312.39008681294 131.081344144635)
(-1041.48825623796 727.694184230459 -742.312885244106)
(-1064.32168919733 495.2276959457 155.807851891774)
(720.70905292666 -569.952703823 -476.268975699242)
(-474.026179715428 -220.662923269894 1049.25931830401)
(248.893973545687 24.6452136334858 279.241298160791)
(536.820103520516 -1030.46493830881 373.697293181881)
(5.90083695455021 -275.963347625275 181.815474671926)
(809.817931650852 940.223980585154 -539.402731653309)
(-439.018568472873 1589.28454495302 -233.92112003093)
(-317.737287269177 -731.957240803287 18.6111312380832)
(764.227507948012 34.8727287858 611.839743017053)
(-528.197659766682 -218.281031596766 408.706202909788)
(-735.071501584176 -259.979779364671 1220.52546824465)
(-144.083490715889 117.372343820024 -118.479346297519)
(-1095.95117970796 -504.188501737636 -149.037765211882)
(-66.3930378350057 426.908399201854 -331.461303751521)
(-473.692981209506 -221.425295865043 331.353738604576)
(113.139460936916 501.040537769588 531.222200606965)
(428.608197941641 857.73794843882 274.477639957398)
(-90.7305251680007 286.014322866407 67.586724410103)
(289.589135886522 295.195337060943 181.345296530363)
(-443.840140769845 687.088560522776 -294.046838604444)
(-147.937776301429 -109.909966203105 -121.676081966375)
(699.646314760605 -239.59491889595 -1963.20669415714)
(363.932859818598 196.01728785271 -144.627313528054)
(394.651348088611 -228.047665262243 -443.652857123661)
(-1151.33604931099 -754.000313310462 600.85059789636)
(-886.45545087657 -221.557143367512 467.168265118761)
(-786.103533006627 -532.898737244364 -185.483495031836)
(1258.35323662439 -678.175707759893 -203.376771820238)
(-553.009120981515 -155.656581151302 666.849100206241)
(275.38138850993 404.245280354508 661.680682809231)
(-682.061561606878 15.1641326548502 -916.77802637281)
(613.00187873146 693.016689041279 -628.849111519406)
(-107.12205482477 240.720421417533 38.3828272160982)
(-88.5821721880657 -69.1545317227628 -721.824917092675)
(-257.608365891279 -270.211085339191 767.217614767514)
(416.528324463677 -510.984669594134 -356.906300539661)
(590.2095204865 -346.869669579429 -317.147816080048)
(-701.421213395273 917.225840976024 39.7337219172128)
(-487.701757406695 839.152700590593 200.475874332314)
(477.242030387944 719.254807289914 -85.5014841352411)
(-906.596832080848 -78.759242217947 380.017539643258)
(919.881443150075 225.049491093761 -1332.75669097872)
(430.035872857377 -592.493929394335 -486.049849862108)
(877.155265553019 997.06085535457 -431.085431115431)
(-603.797630936292 293.973340258017 -775.012151720047)
(-567.231920859498 310.513822134296 641.452651942425)
(130.324180150104 339.646400322336 208.320172371334)
(-872.922735617697 850.705429761902 247.139401520611)
(1227.29910097794 354.243242885867 -417.90009558533)
(-608.99886454918 -536.351360122962 658.931836357943)
(-145.551842228714 328.289858473908 -110.205593291725)
(-309.540843632034 -209.802157618768 -777.289198724878)
(82.9161027030641 -380.481135368871 455.269768328136)
(468.197405261203 62.4669361827922 -88.3269823703341)
(-984.004148320209 -46.067177681844 -127.056187801388)
(-803.077851444022 -89.2356146796213 -291.043200496227)
(216.54949864934 203.959378652661 679.623019441062)
(372.727282528814 -735.28836916859 177.212587381252)
(-306.290742244363 377.059309763513 -104.979217729661)
(-351.926975554871 607.052079984145 1214.41991693079)
(-562.8403321948 717.295211455181 786.463912652456)
(-31.909612697555 536.284427018414 11.9913996171307)
(922.524935569476 4.12241333868813 702.93757754539)
(170.488818149617 -950.130342245445 696.477401256141)
(303.918243528972 34.4367220449932 -1440.41384972972)
(535.42259323584 597.494074067522 387.254483513891)
(52.1437968609509 68.4893949451994 381.126415923281)
(715.032772640198 -30.331985319041 -108.980039844202)
(27.2877145238013 258.336035274575 -131.52154505884)
(676.157752102446 -733.049582760457 416.832512577513)
(237.62083970573 -199.930883251062 -457.418440006171)
(-358.119850505017 -252.280294320764 -741.487779479267)
(-282.544487794261 1276.24352129309 -97.0543153007101)
(-486.701963000932 -27.7517037587121 1737.28149077771)
(255.066767661418 -253.28788127311 -475.737368982399)
(-911.625621042023 693.883590020442 -1304.94677017252)
(-786.790784838463 -911.875202217792 2.4900440159361)
(-18.2807103091831 109.981271948624 -552.653989639605)
(418.913252754883 -334.712754381412 648.633554943073)
(-309.134794046761 371.206968626312 1031.09403836373)
(975.194508008161 -524.275234309115 -408.823369076619)
(-268.469726130484 -358.490293011496 -394.543105219745)
(490.941737673258 613.302190377225 4.45453691462857)
(107.086812979891 110.981229471078 589.502392781487)
(-122.521380627564 492.372421318809 -442.892990673027)
(-385.5992946412 757.043454035184 249.84693474168)
(1115.21149282478 274.176053667978 -210.278698364203)
(-719.523081180793 -396.45645384802 -629.941929067649)
(709.184155750903 65.3355458267667 -667.287435244036)
(1164.00603579257 -482.422664317596 1463.56730270021)
(-928.536594710329 -824.749460969469 491.242521013829)
(378.354681102734 864.151704236249 380.373594025182)
(-232.648385296472 132.372894075468 531.435473972336)
(433.607625919338 -145.64774655921 -230.385630296786)
(-922.921678358018 -815.690933430097 -851.453243648394)
(90.3232733915554 -268.602045664068 -435.961975611214)
(-718.476674871196 48.9661910956257 195.671471606547)
(-1025.545013841 196.46748483511 -210.04202957587)
(-717.558485671653 -809.871851700268 960.901199968013)
(238.921011501644 275.222559769587 -31.9677926614061)
(221.741703939488 1553.45368657484 -148.479232307062)
(962.65275978841 -406.500619574527 274.906414892002)
(-173.094263429607 -208.742113285719 -768.008192582865)
(397.37236774007 679.986113298767 -412.630926693529)
(1157.83518003445 -1464.58307370306 -661.575745678966)
(583.488637887731 207.4930466529 -1267.92647977201)
(249.262939765743 601.454370055356 -381.092777489215)
(-452.450243854213 -232.29507255448 -1000.45010194086)
(-264.247467776426 960.13346599036 103.237769815159)
(549.370605937792 -165.990635112408 228.552504946983)
(891.642684838652 -1229.02896696853 258.401323624478)
(-376.049581711167 771.035362244637 872.841237147768)
(-766.477497423413 -815.773842276071 -192.016145465901)
(103.162421397222 580.601097961819 -887.203761505064)
(761.141797997358 921.172633924883 -375.856567410351)
(-794.95092240964 -367.128164932949 266.279712928769)
(-12.9242372746917 -1164.73868159057 -456.774746598585)
(780.284566858538 64.503317532834 -142.101831957278)
(-208.317616998499 2.18177235024881 -916.222134814491)
(-531.305691432744 1413.54040787728 -710.225959337116)
(443.679127788455 1233.58795042281 -73.9398605807434)
(787.360449171202 -589.125990873738 -717.522768581199)
(-259.421854369379 -566.932820891769 272.324211031019)
(909.784458992215 669.606335251774 493.505452519634)
(-906.159704201282 482.69889198898 822.03581112305)
(-754.082859258809 185.179141198973 -378.91730000366)
(-427.652228636199 693.919095237813 -408.874588184328)
(274.280526775652 -158.889238718757 437.23241781491)
(750.423415640956 323.129642616119 -11.6334613248288)
(751.935249115251 457.414489059577 -144.407800537986)
(1084.17619944113 289.816522854034 -786.323459351622)
(-143.525403035149 55.6267526953932 476.274932644394)
(297.059581142071 -993.160606631406 358.791427742703)
(-242.781184145132 561.99104217679 1113.01599335176)
(-76.10923655205 -723.116070467513 836.382186203217)
(589.18020634424 85.4144743382855 -19.6231077786821)
(777.486011702812 18.2758179009154 -94.2622238587392)
(-422.681876406246 -0.928280469296018 908.084607381945)
(-332.117176633771 -364.053747732351 79.3851634839692)
(-806.03463399215 -702.287533909338 -802.469649070834)
(1000.5422250947 -120.429706616355 74.3830680923437)
(664.781448587608 60.7391638853905 311.593980626381)
(539.29864377877 -123.575281128115 2444.49079802838)
(-539.67040765476 -123.186427300903 115.300968547164)
(-3.02144233550764 -368.771574893095 -640.0338103481)
(635.714972122278 33.3688129118437 -249.188078371469)
(-386.161167695968 408.257936701063 680.831169807938)
(-53.3172971187713 295.768085985084 58.5472592678164)
(252.682642971007 -519.270569350435 920.322554370606)
(514.834486616221 -524.481506667572 -112.232627504799)
(-352.000341499871 851.873282865493 127.036621647094)
(573.180522335462 -971.665732571311 -1024.39249153687)
(260.198599668247 -330.998379191206 -684.435494193669)
(-836.224954394782 -258.509097899979 229.095028701945)
(-769.892299485257 380.421474127793 321.10093803043)
(140.257941090419 530.783857384215 63.4885298817909)
(40.7984703386375 -852.580193147174 -869.018155550912)
(465.551439899451 464.847788293359 -714.131212983904)
(-863.970936629974 820.771705669632 219.615044902571)
(-8.32744058471657 -379.867001417577 82.8999718084063)
(367.977672721624 458.212532720109 113.047959901739)
(-640.660788311416 214.252648381018 -1111.31209838409)
(667.523680984582 93.3908813834176 -147.85989085926)
(182.052240543671 -532.25251426914 366.316554265861)
(-1136.46613262455 436.854715649098 463.908129467288)
(432.122695750115 -363.822459113597 641.489067805686)
(80.619942561332 380.058657223589 95.8694070568714)
(-600.115065087637 1750.62415235424 -201.166530903858)
(-684.762408961827 13.5739422700873 -554.753999202682)
(-435.306188811983 -146.110004873369 640.408695279894)
(-324.197037973619 -297.453619072629 -202.544193370457)
(451.625074896748 -992.356913038021 -152.454476633482)
(461.306999677648 -241.713698954506 -82.3432464079417)
(187.298339823654 -801.45528009471 -643.416948927999)
(736.933993387384 -2200.67835501814 608.908950014242)
(-61.7672700672558 -135.116108918229 -520.284162546473)
(871.2819567429 -19.6764710163261 306.097741342489)
(-1163.10861989599 -344.379760977082 -40.9270880361368)
(40.9866866157182 67.6374674680902 509.222557183057)
(572.996572417977 190.98197233786 -202.567570651593)
(-341.472205936474 45.7002278999834 -272.710783672712)
(1163.42484589747 124.898167889005 -289.419498165526)
(199.169204094195 -132.927022387199 -320.093526122235)
(239.518232871909 -893.994437366874 -517.376859923693)
(634.127527929459 334.388388665489 1263.38732619275)
(998.4667050509 -527.874312231478 -325.225823746445)
(-204.36366327023 -479.235237709947 -808.86795888114)
(676.631337039377 -888.503989270047 543.692290027445)
(1028.79331637302 -425.302532177197 -916.497095484776)
(379.624014028265 706.714983635304 -208.588119639937)
(-485.684169118403 -425.36550325074 320.331235481685)
(333.540122468394 -1021.33321068192 879.830774035325)
(-241.488784389933 1112.11240547182 739.897543872365)
(851.003597598268 -166.397737295331 -554.579289497396)
(513.473441091094 -643.398927560306 -339.035564917947)
(735.824583419522 -210.296379639447 82.8441918593275)
(-487.207752484615 -1258.62563726327 -1597.22431892282)
(-944.267830255096 768.025722714843 -282.82719130444)
(186.642611569872 434.169827529461 -532.136890883945)
(1184.3470181841 -779.701394080031 -153.007323106081)
(-557.409964574541 -1048.55748931004 618.006385009375)
(-635.635297518275 368.496781841503 869.645311682897)
(392.51329215511 -758.7292930089 -1013.85672405645)
(1138.84726112428 -727.871940778628 908.582030978431)
(632.874474812914 1162.04848497942 -602.091951388183)
(636.061849006651 147.246849896369 297.179445708122)
(56.7328190694761 338.505455440038 69.9270566293863)
(213.274028496363 248.487398804205 -520.187821672661)
(188.946096428069 -539.332659207996 -1550.78076366977)
(287.625897444445 -150.802789133153 -141.851194892553)
(-1193.58444078326 -118.972807933671 -470.704136467071)
(427.347114560315 -120.372287065037 -270.908298185557)
(622.149878787579 956.874407999127 -898.402120478068)
(-596.16985752295 -1234.11478500827 -894.938353623479)
(1744.14035125969 -687.228488915535 492.683955725287)
(645.923621097337 685.474862441809 -766.351448997822)
(-380.445460068626 490.458398755786 368.007915230799)
(417.421102233148 299.47886765691 499.103668023028)
(-253.16055942837 593.889135372003 -407.76864462383)
(-424.940449602156 -140.180244134957 846.353219683355)
(-750.847429262799 67.9485810319323 456.557572562712)
(466.285266378145 209.736919676594 -101.84303450265)
(-36.0193168291077 398.793731310964 282.375813165618)
(1520.73535665137 -1245.05071781976 -300.837739007719)
(707.842722865657 131.977334274522 456.981940411979)
(-7.47731218231131 -570.562400100072 358.150417758887)
(376.716584725605 -106.097212893929 -113.625514974263)
(-845.019197915731 1334.91012482924 640.392191387729)
(-32.0381909416743 -118.981267020218 185.421607195743)
(97.9915862619956 -1136.03850196984 124.103356349328)
(-223.061160103957 -332.308500289252 729.263264015704)
(598.341246541166 -967.253571118158 -573.265511983617)
(-605.840074904441 -491.406367154844 -469.420521045399)
(-99.2942441611424 -223.675582628639 -792.397968461563)
(321.346267709246 -1253.57102878898 -1005.50077618114)
(-599.664643531824 147.120345077333 -148.859557120206)
(1163.73160549846 -104.397645198804 -335.775281555324)
(704.566499716252 312.562559264716 -557.816786468678)
(-610.199819879744 118.464923662001 -437.031144934477)
(135.61699312014 -50.0399647352363 -132.533672225266)
(-245.376109803105 863.47017659739 1109.90100129824)
(742.781092963928 491.332128554987 179.49923655689)
(-109.023981160429 154.594628701919 -1844.32764545078)
(800.918159988492 -812.912840721819 186.044038316079)
(1072.04819733463 -29.3250085393393 -1980.60460932565)
(-65.7527688220483 -556.620609529828 -637.610045523802)
(1425.58228658647 681.356174379603 -1146.80262420295)
(450.677431462332 -250.431693224702 -378.318202982276)
(819.252870988857 -576.874221236086 325.244007820882)
(432.379505149186 995.263643947512 -488.694473790301)
(1878.41846200851 -26.0125869769649 -590.552334226471)
(-83.9190134868242 222.683953558853 326.21886103023)
(1147.02081614294 -781.431172077869 427.978533828595)
(-245.366157687049 -1305.45025882692 -9.3682837909327)
(-475.657742501667 -20.1654578156343 -1067.06447867134)
(337.485039732808 105.860631459179 78.0545354516614)
(496.791621795756 -71.4347333453148 283.849871423451)
(-728.313689398803 512.653185315734 447.41056003166)
(-86.0129731299154 1406.1610085379 247.713008618253)
(60.4834834425951 531.923031584151 460.501880256659)
(-666.707748698011 -213.819451610678 -143.214424809303)
(738.225212261239 -460.118215620815 89.5896660862445)
(255.685696719512 360.360088833329 -143.003459080619)
(-28.9495579916866 40.2740876951156 -24.4568580886435)
(1031.60923869662 570.662186327787 -209.39920490378)
(-354.551230627636 778.229371665529 -540.525375775341)
(-1125.30107945869 673.791635860043 -141.885661094766)
(-818.41432797274 -676.342594461228 109.623675053607)
(-145.598526043148 284.555253088132 -594.04638684939)
(204.119074144143 824.155967206062 323.647272436946)
(1350.72080967292 651.459770402928 747.862912595351)
(-177.768312958877 40.9441281767635 -382.107080000345)
(823.464438562701 -65.3404032370772 803.56818212448)
(-488.449742515139 104.341711682738 319.048354460517)
(155.04033379977 -657.368195496433 -1324.776765344)
(-251.190062111561 -39.6450738556277 1064.95274058484)
(574.256033956676 96.4381078228223 -414.431637261443)
(1827.79475107825 -433.153021761877 -505.914180508746)
(529.302681515101 928.057397448982 253.014858558061)
(658.920788712039 1245.6826577127 -1269.18656788731)
(-62.2255500059476 -253.004108693663 41.129931180389)
(-463.423210640645 -338.711606255218 1374.90523721494)
(-138.577469926091 -395.593511291986 -798.774393678456)
(296.805663078209 -400.200121578912 -958.390721227133)
(44.4283199070431 839.092080420383 519.197831303389)