/*--------------------------------*- C++ -*----------------------------------*\
| =========                 |                                                 |
| \\      /  F ield         | NpenFNAM: The Npen Source CFD Toolbox           |
|  \\    /   N peration     | Version:  1.7.1                                 |
|   \\  /    A nd           | Web:      www.NpenFNAM.com                      |
|    \\/     M anipulation  |                                                 |
\*---------------------------------------------------------------------------*/
FoamFile
{
    version     2.0;
    format      ascii;
    class       dictionary;
    location    "system";
    object      chemReactDict;
}
// * * * * * * * * * * * * * * * * * * * * * * * * * * * * * * * * * * * * * //

reactions
(

);

