/*--------------------------------*- C++ -*----------------------------------*\
| =========                 |                                                 |
| \\      /  F ield         | OpenFOAM: The Open Source CFD Toolbox           |
|  \\    /   O peration     | Version:  1.7.1                                 |
|   \\  /    A nd           | Web:      www.OpenFOAM.com                      |
|    \\/     M anipulation  |                                                 |
\*---------------------------------------------------------------------------*/
FoamFile
{
    version     2.0;
    format      ascii;
    class       dictionary;
    location    "system";
    object      dsmcInitialiseDict;
}
// * * * * * * * * * * * * * * * * * * * * * * * * * * * * * * * * * * * * * //
configurations
(
    configuration
    {
        type                    dsmcMeshFill;

		    numberDensities
		    {
			      N2            2.318e18;
        		O2            6.161e17;
		    };

		    translationalTemperature     217.63;
		    rotationalTemperature        217.63; 
		    vibrationalTemperature       217.63;
        electronicTemperature             0;

		    velocity        (6053.4 0 0);
    }
);

// ************************************************************************* //
