/*--------------------------------*- C++ -*----------------------------------*\
| =========                 |                                                 |
| \\      /  F ield         | OpenFOAM: The Open Source CFD Toolbox           |
|  \\    /   O peration     | Version:  v1706                                 |
|   \\  /    A nd           | Web:      www.OpenFOAM.org                      |
|    \\/     M anipulation  |                                                 |
\*---------------------------------------------------------------------------*/
FoamFile
{
    version     2.0;
    format      ascii;
    class       dictionary;
    location    "constant";
    object      hTCReactionsEarth93;
}
// * * * * * * * * * * * * * * * * * * * * * * * * * * * * * * * * * * * * * //

// Chul Park
// Review of Chemical-Kinetic Problems of Future NASA Missions, I: Earth Entries
// JOURNAL OF THERMOPHYSICS AND HEAT TRANSFER
// Vol.7, No.3, July.-Sept. 1993

species
(
    N2
    O2
    /*NO
    N2+
    O2+
    NO+
    N
    O
    N+
    O+
    e-*/
);

//vibTempAssociativity (0 0 0 1 2 2 1 1 2 1 1);

// * * * * * * * * * * * * * * * * * * * * * * * * * * * * * * * * * * * * * //
/* REACTIONS NO 1 TO 3               -> DISSOCIATION
   REACTION NO 4                     -> ELECTRON IMPACT DISSOCIATION
   REACTIONS NO 5 AND 6              -> EXCHANGE
   REACTIONS NO 7 AND 8              -> ELECTRON IMPACT IONIZATION
   REACTIONS NO 9 TO 11              -> ASSOCIATIVE IONIZATION
   REACTIONS NO 12 TO 19             -> CHARGE EXCHANGE                      */
// * * * * * * * * * * * * * * * * * * * * * * * * * * * * * * * * * * * * * //
  
reactions
{

}
