/*--------------------------------*- C++ -*----------------------------------*\
| =========                 |                                                 |
| \\      /  F ield         | OpenFOAM: The Open Source CFD Toolbox           |
|  \\    /   O peration     | Version:  v1706                                 |
|   \\  /    A nd           | Web:      www.OpenFOAM.com                      |
|    \\/     M anipulation  |                                                 |
\*---------------------------------------------------------------------------*/
FoamFile
{
    version     2.0;
    format      ascii;
    class       polyBoundaryMesh;
    location    "1e-10/polyMesh";
    object      boundary;
}
// * * * * * * * * * * * * * * * * * * * * * * * * * * * * * * * * * * * * * //

5
(
    inlet
    {
        type            patch;
        nFaces          118;
        startFace       23147;
    }
    outlet
    {
        type            patch;
        nFaces          99;
        startFace       23265;
    }
    fire
    {
        type            wall;
        inGroups        1(wall);
        nFaces          118;
        startFace       23364;
    }
    lWedge
    {
        type            wedge;
        inGroups        1(wedge);
        nFaces          11682;
        startFace       23482;
    }
    rWedge
    {
        type            wedge;
        inGroups        1(wedge);
        nFaces          11682;
        startFace       35164;
    }
)

// ************************************************************************* //
