/*--------------------------------*- C++ -*----------------------------------*\
| =========                 |                                                 |
| \\      /  F ield         | OpenFOAM: The Open Source CFD Toolbox           |
|  \\    /   O peration     | Version:  2.3.x                                 |
|   \\  /    A nd           | Web:      www.OpenFOAM.org                      |
|    \\/     M anipulation  |                                                 |
\*---------------------------------------------------------------------------*/
FoamFile
{
    version     2.0;
    format      ascii;
    class       polyBoundaryMesh;
    location    "constant/polyMesh";
    object      boundary;
}
// * * * * * * * * * * * * * * * * * * * * * * * * * * * * * * * * * * * * * //

5
(
    cone
    {
        type            wall;
        nFaces          600;
        startFace       239200;
    }
    inlet
    {
        type            patch;
        nFaces          600;
        startFace       239800;
    }
    rWedge
    {
        type            wedge;
        nFaces          120000;
        startFace       240400;
    }
    lWedge
    {
        type            wedge;
        nFaces          120000;
        startFace       360400;
    }
    outlet
    {
        type            patch;
        nFaces          200;
        startFace       480400;
    }
)

// ************************************************************************* //
