/*--------------------------------*- C++ -*----------------------------------*\
| =========                 |                                                 |
| \\      /  F ield         | OpenFOAM: The Open Source CFD Toolbox           |
|  \\    /   O peration     | Version:  v1706                                 |
|   \\  /    A nd           | Web:      www.OpenFOAM.com                      |
|    \\/     M anipulation  |                                                 |
\*---------------------------------------------------------------------------*/
FoamFile
{
    version     2.0;
    format      ascii;
    class       dictionary;
    location    "constant";
    object      dynamicMeshDict;
}
// * * * * * * * * * * * * * * * * * * * * * * * * * * * * * * * * * * * * * //

dynamicFvMesh   dynamicRefineFvMesh;

dynamicRefineFvMeshCoeffs
{
    // How often to refine
    refineInterval  1000;
    
    // Field to base refinement on
    field           SOFP_N2cold;
    
    // Refine field inbetween lower..upper
    lowerRefineLevel 0.75;
    upperRefineLevel 100;
    
    unrefineLevel 0.25;
    
    // Have slower than 2:1 refinement
    nBufferLayers   1;
    // Refine cells only up to maxRefinement levels
    maxRefinement   3;
    // Stop refinement if maxCells reached
    maxCells        2000000;
    // Flux field and corresponding velocity field. Fluxes on changed
    // faces get recalculated by interpolating the velocity. Use 'none'
    // on surfaceScalarFields that do not need to be reinterpolated.
    correctFluxes
    (
    );
    // Write the refinement level as a volScalarField
    dumpLevel       true;
}


// ************************************************************************* //
