/*--------------------------------*- C++ -*----------------------------------*\
| =========                 |                                                 |
| \\      /  F ield         | OpenFOAM: The Open Source CFD Toolbox           |
|  \\    /   O peration     | Version:  combo                                 |
|   \\  /    A nd           | Web:      www.OpenFOAM.org                      |
|    \\/     M anipulation  |                                                 |
\*---------------------------------------------------------------------------*/
FoamFile
{
    version     2.0;
    format      ascii;
    class       volScalarField;
    location    "0";
    object      Tt;
}
// * * * * * * * * * * * * * * * * * * * * * * * * * * * * * * * * * * * * * //

#include "include/initialConditions"

dimensions      [0 0 0 1 0 0 0];

internalField   uniform $Ttr;

boundaryField
{
    inlet
    {
        type            fixedValue;
        value           uniform $Ttr;
    }
    
    HB2
    {
        type            fixedValue;
		    value			      uniform $Twall;
    }
    
    #include "include/boundaries"
}

// ************************************************************************* //
