/*--------------------------------*- C++ -*----------------------------------*\
| =========                 |                                                 |
| \\      /  F ield         | OpenFOAM: The Open Source CFD Toolbox           |
|  \\    /   O peration     | Version:  combo                                 |
|   \\  /    A nd           | Web:      www.OpenFOAM.org                      |
|    \\/     M anipulation  |                                                 |
\*---------------------------------------------------------------------------*/
FoamFile
{
    version     2.0;
    format      ascii;
    class       volVectorField;
    location    "0";
    object      U;
}
// * * * * * * * * * * * * * * * * * * * * * * * * * * * * * * * * * * * * * //

#include "include/initialConditions"

dimensions      [0 1 -1 0 0 0 0];

internalField   uniform $velocityField;

boundaryField
{
    inlet
    {
        type            fixedValue;
        value           uniform ($velocityInlet 0 0);
    }
    
    HB2
    {
        type            fixedValue;
        value           uniform $velocityWall;
    }
    
    #include "include/boundaries"
}

// ************************************************************************* //
