/*--------------------------------*- C++ -*----------------------------------*\
| =========                 |                                                 |
| \\      /  F ield         | OpenFOAM: The Open Source CFD Toolbox           |
|  \\    /   O peration     | Version:  2.3.0                                 |
|   \\  /    A nd           | Web:      www.OpenFOAM.org                      |
|    \\/     M anipulation  |                                                 |
\*---------------------------------------------------------------------------*/
FoamFile
{
    version     2.0;
    format      ascii;
    class       dictionary;
    object      blockMeshDict;
}
// * * * * * * * * * * * * * * * * * * * * * * * * * * * * * * * * * * * * * //

convertToMeters 1;

vertices
(
    (-0.005 0 0)
    (0 0 0)
    (0.0101425 0 0)
    (0.1 0 0)
    (0.1 0.1 0)
    (0.0101425 0.1 0)
    (0 0.1 0)
    (-0.005 0.1 0)

    (-0.005 0 0.001)
    (0 0 0.001)
    (0.0101425 0 0.001)
    (0.1 0 0.001)
    (0.1 0.1 0.001)
    (0.0101425 0.1 0.001)
    (0 0.1 0.001)
    (-0.005 0.1 0.001)

);

blocks
(
    hex (0 1 6 7 8 9 14 15) (175 281 1) simpleGrading (0.00708127324018466 2795.37159938778 1)
    hex (1 2 5 6 9 10 13 14) (200 281 1) simpleGrading (285.013587163743 2795.37159938778 1)
    hex (2 3 4 5 10 11 12 13) (81 281 1) simpleGrading (9.86524332599693 2795.37159938778 1)
);

edges
(
);

boundary
(
    inlet
    {
        type patch;
        faces
        (
            (0 8 15 7)
        );
    }
    outlet
    {
        type patch;
        faces
        (
            (3 4 12 11)
        );
    }
    bottom
    {
        type symmetry;
        faces
        (
            (0 1 9 8)
        );
    }
    top
    {
        type patch;
        faces
        (
            (6 7 15 14)
            (5 6 14 13)
            (4 5 13 12)
        );
    }
    plate
    {
        type wall;
        faces
        (
            (1 2 10 9)
            (2 3 11 10)
        );
    }
    frontAndBack
    {
        type empty;
        faces
        (
            (7 6 1 0)
            (6 5 2 1)
            (5 4 3 2)
            (8 9 14 15)
            (9 10 13 14)
            (10 11 12 13)
        );
    }
);

mergePatchPairs
(
);

// ************************************************************************* //
