/*--------------------------------*- C++ -*----------------------------------*\
| =========                 |                                                 |
| \\      /  F ield         | OpenFOAM: The Open Source CFD Toolbox           |
|  \\    /   O peration     | Version:  2.3.0                                 |
|   \\  /    A nd           | Web:      www.OpenFOAM.org                      |
|    \\/     M anipulation  |                                                 |
\*---------------------------------------------------------------------------*/
FoamFile
{
    version     2.0;
    format      ascii;
    class       dictionary;
    object      blockMeshDict;
}

// * * * * * * * * * * * * * * * * * * * * * * * * * * * * * * * * * * * * * //

convertToMeters 1;

vertices
(
    (-0.02 0.01 0.000437)
    (0  0.01 0.000437)
    (0  0.01 -0.000437)
    (-0.02 0.01 -0.000437)
    (-0.02 0 0)
    (0 0 0)//5

    (-0.02 0.03 0.00131)
    (0 0.03 0.00131)
    (-0.02 0.03 -0.00131)
    (0 0.03 -0.00131) //9

    (0.02 0.01 0.000437)
    (0.02 0.03 0.00131)
    (0.02 0.01 -0.000437)
    (0.02 0.03 -0.00131) //13
);

blocks
(
    hex (4 5 5 4 0 1 2 3) (40 1 20) simpleGrading (1 1 1)
    hex (0 1 2 3 6 7 9 8) (40 1 40) simpleGrading (1 1 1)
    hex (1 10 12 2 7 11 13 9) (40 1 40) simpleGrading (1 1 1)
);

boundary
(
    flow
    {
        type patch;
        faces
        (
            (0 4 4 3)
			(0 6 8 3)
			(8 9 7 6)
			(9 13 11 7)
			(10 11 13 12)
        );
    }

    cylinder
    {
        type wall;
        faces
        (
            (1 10 12 2)
            (1 5 5 2)
        );
    }

    wedgeFront
    {
        type symmetry;
        faces
        (
            (0 1 5 4)
            (0 1 7 6)
            (1 10 11 7)
        );
    }

    wedgeBack
    {
        type symmetry;
        faces
        (
            (3 2 5 4)
            (3 2 9 8)
            (2 12 13 9)
        );
    }
)

mergePatchPairs
(
);


// ************************************************************************* //
