/*--------------------------------*- C++ -*----------------------------------*\
| =========                 |                                                 |
| \\      /  F ield         | OpenFOAM: The Open Source CFD Toolbox           |
|  \\    /   O peration     | Version:  v1706                                 |
|   \\  /    A nd           | Web:      www.OpenFOAM.com                      |
|    \\/     M anipulation  |                                                 |
\*---------------------------------------------------------------------------*/
FoamFile
{
    version     2.0;
    format      ascii;
    class       scalarField;
    location    "0/lagrangian/dsmc";
    object      ERot;
}
// * * * * * * * * * * * * * * * * * * * * * * * * * * * * * * * * * * * * * //


99999
(
2.15799331497173e-20
5.93963455753438e-20
1.77891367085663e-21
2.10320377628165e-19
2.56618352891717e-19
1.64498588500145e-20
8.90870979633899e-19
3.0878511345709e-19
3.8070413892911e-20
7.71640114221148e-19
6.67388052571624e-19
1.79451847196271e-19
1.99484155690011e-19
9.9437700076317e-19
3.03171015158307e-19
2.16619611019601e-19
5.47683806529097e-19
9.72223238786885e-20
5.72227841256999e-19
6.99797297748306e-21
5.27460638638119e-19
3.70357686178589e-19
5.0439783835517e-20
2.6811118592752e-19
7.73574490430026e-20
1.02978492821198e-19
3.65856395145946e-20
3.57474497919431e-19
6.46988580451839e-20
3.76843019599685e-20
2.04808748785377e-20
1.67479203170965e-19
5.38981125441952e-20
3.32019800598857e-19
1.61268254406255e-19
2.8029953771438e-19
9.87663521803961e-19
4.43362850995934e-20
1.24944158511426e-18
5.57638451711967e-19
6.70650672482351e-19
4.86972623961054e-20
8.79494112618446e-20
3.17295084224745e-19
3.5000316179675e-19
3.97766210065027e-19
7.87080131029602e-19
9.3443093998617e-20
6.79390936385787e-19
4.40315002527444e-19
5.24857649910761e-19
3.11526084903599e-19
2.99385722980852e-20
5.82500982095177e-19
7.27069959300933e-20
5.68408632683911e-19
4.5991471775197e-20
6.29185713012843e-19
4.0239207453538e-21
2.26521752823016e-19
4.63020687929528e-20
2.96912288909383e-21
8.81994020986783e-20
2.69448739361573e-19
2.70190822056433e-19
3.93320501433783e-19
1.11570997927461e-19
3.15849774361192e-20
1.05854104363451e-19
1.80369357759725e-20
8.74454948912836e-19
2.08747700539338e-20
4.84972276100839e-19
6.42847050973537e-20
1.20719191847536e-20
1.00396696684215e-20
5.7032118500252e-20
1.26749477543077e-19
1.73469875847632e-19
3.79669447080024e-20
7.63365957199408e-19
8.70777093481737e-20
8.8514160737735e-20
5.24697885771614e-20
2.32145185606427e-19
2.00560842542304e-19
4.37872439683949e-19
2.64446289486754e-19
1.76775515610213e-19
1.54899419337925e-19
1.63016283061528e-19
1.85747438701508e-19
3.54489269491096e-20
1.62722918467737e-19
1.7250952711234e-18
6.90203443079608e-20
5.90597784642733e-20
2.33677517205714e-19
2.10303468856851e-19
1.42935337048306e-19
2.7340713597447e-19
2.3587720972999e-19
2.27815555473821e-20
1.02376507457917e-19
4.28129656875752e-19
3.87258417201453e-19
4.65305514547502e-19
1.88045756277919e-19
2.78347556548006e-19
6.7356709280136e-19
7.88113606476949e-19
1.06332000037896e-19
3.38401784310187e-19
8.6336491512804e-19
7.58421825490023e-20
3.49846137313313e-19
4.99407633821975e-20
2.98218081126014e-19
7.47727804608316e-20
1.77537156710914e-19
4.2348231294583e-21
6.27943593116703e-19
2.25480139264088e-19
1.09654677585473e-19
3.5383872694397e-20
3.97410635093297e-20
1.57064764797201e-19
1.21204232137487e-19
2.15751514592039e-21
6.36049688669682e-20
1.48891407670412e-18
8.00626444264738e-20
2.94865608329082e-19
2.80755661045256e-19
6.26220930667903e-19
1.83467462960004e-19
7.49546739051074e-19
2.21887025555768e-20
5.6120742160559e-19
7.92545882707127e-20
2.32207495546616e-19
9.85994917081554e-20
7.36177616708339e-20
4.51898668109014e-21
3.33038217147145e-19
6.40950184369824e-20
3.69361417158047e-19
4.2735684622979e-19
2.65297032899814e-19
4.7786743810046e-19
1.71871620504668e-19
3.85055471315437e-21
1.00811916332688e-19
1.44098880380729e-18
4.82361057509673e-20
2.01876250901214e-19
2.02109058331751e-19
4.67452764487893e-19
6.89084047227352e-20
4.85582258226438e-19
1.68501328182109e-19
7.4660587674708e-19
5.53554949313369e-19
8.1016553529966e-20
1.59152091808546e-19
7.23695018436383e-19
4.26998352304173e-19
2.15771125997167e-21
6.38492600701432e-19
6.18934381812728e-20
3.56817149180199e-19
6.84528896462821e-19
3.11106542808384e-19
7.97232046709821e-19
2.06869006248744e-19
3.33074751589588e-19
1.69040947690819e-20
5.6076011231368e-20
6.17769413311884e-20
2.25846198343261e-19
2.95474153433633e-19
2.60263737714836e-19
2.21258685538501e-19
3.73405761420241e-19
1.19014821823236e-19
6.58296094381505e-19
4.03301571484329e-19
2.40480065669644e-19
7.30595828184119e-20
4.93581249351673e-20
3.03307832733787e-19
8.09491487986306e-20
2.55973599123291e-19
3.5076716791579e-20
1.77425489216063e-20
8.85201548032099e-20
3.7990690507672e-20
2.35190908722603e-19
1.40417703050964e-19
1.35158006875927e-19
5.18263938818925e-20
1.51919492957802e-19
3.45208739333284e-20
6.73475706731685e-19
1.06414494823239e-20
1.3502517604264e-19
9.6824378971013e-20
3.87989901030231e-20
5.86631323224336e-20
7.58406111890748e-19
7.68780330989348e-21
5.95115130937607e-19
3.84788619210707e-19
2.34363006984295e-19
2.57508556504157e-19
8.47507775018687e-19
1.03076987194057e-19
6.46567775696148e-20
2.54114917976447e-19
4.0728608295704e-20
2.94971207060803e-19
1.59457615756585e-19
5.12161787567115e-19
1.85034617948893e-19
2.8734642554806e-19
1.71596036611613e-19
5.45524320654944e-19
1.8975443807673e-20
1.24919936570055e-19
1.99990109377398e-19
3.45723163947605e-20
5.74068691665007e-19
2.1555872269513e-19
1.74745252762166e-19
2.01869573043827e-20
4.30567952585477e-20
5.26249456367617e-19
9.40667869062807e-20
6.16447972704131e-19
3.79548042272474e-19
5.23111845999012e-19
9.22356989260659e-20
1.37381779946366e-19
4.23504094827669e-19
1.51569927654921e-19
5.5991088212267e-20
3.04603304172053e-23
3.56609254486846e-19
4.52858630199308e-19
4.00248664862262e-20
3.87844522295522e-19
6.1276374599305e-20
6.11560585661332e-19
6.40528313625713e-20
1.19840402590994e-19
1.06712903686806e-18
1.80006210614557e-19
1.69293795434669e-19
7.57113635182781e-20
1.99573793400436e-19
1.72510418265885e-19
4.91307686326308e-19
2.89678730300401e-20
5.16024202036015e-20
1.40728148407529e-19
4.00721446017737e-19
8.91710677664815e-20
4.98100525518594e-19
3.26282791353653e-20
1.8458029295637e-19
3.24083420315985e-19
1.22771162746387e-19
5.51501282928493e-19
5.00426653878926e-19
1.32820277794792e-19
3.13656196802642e-21
9.02992791142629e-21
1.11578454701296e-19
3.22075347504522e-19
6.42162028883347e-19
3.24302766472219e-19
5.30724188394732e-20
3.54686147458995e-19
2.15061692672198e-19
4.1138383105814e-19
6.88701894645084e-19
5.85914444430512e-19
5.47769999357358e-20
1.54512903224124e-19
3.25493504016442e-19
1.64056221635797e-20
3.12583334143961e-19
2.03017214387197e-19
7.19103550634082e-20
5.29840676044326e-19
2.13315209290855e-20
1.96640948200163e-19
3.71934283386595e-20
1.66580051468258e-19
3.16307604326611e-20
6.53059314841154e-20
5.62551760331212e-19
1.80360066822764e-19
3.10882965347321e-19
5.44141328252335e-20
2.29487742219692e-20
2.38777051372008e-19
2.24364675867096e-19
2.46175790181659e-19
2.26294837042246e-19
2.82246828383238e-19
7.16164938278207e-20
2.37827683081245e-19
1.53352305607164e-18
2.77993260440856e-19
2.93328927590851e-20
3.30959837465658e-19
1.00811533132574e-18
4.83966100290426e-20
6.885881576748e-20
2.19758889766823e-19
3.2221830835277e-19
1.37179800576844e-19
2.64606837487958e-19
1.30451759202232e-19
1.8586624203927e-19
3.22015793597477e-19
6.04135252063024e-19
2.00625778905023e-19
3.01635976753079e-20
1.41799497077625e-19
2.72835307955939e-19
5.25388582698554e-20
6.23767917700377e-20
4.98694235220531e-19
4.02181891259271e-19
2.27673798163088e-19
3.92335509622052e-19
6.54711203089286e-19
3.4304435502063e-19
2.19789231166148e-19
2.83050580631409e-19
2.60913173524986e-19
2.00470033501163e-19
7.15899770216263e-20
3.40911993468486e-19
7.70141042690192e-19
2.495805291435e-19
1.11784258311005e-19
6.16117183417488e-20
4.77247353881158e-21
3.95136652474399e-19
4.07853423212253e-19
1.24135933691138e-18
1.61840413568982e-19
4.5916170283387e-19
1.04795105950372e-19
3.32150321659605e-20
7.59920255477981e-19
6.08902520502544e-19
1.38547801412121e-19
6.58004532576579e-19
1.50052949344469e-20
1.08217810311082e-18
4.37863954762112e-19
3.12501468022858e-19
2.89712160833003e-19
3.31605042449946e-19
1.0211659564185e-18
5.77500430438229e-20
2.45806077336028e-19
9.4208674966914e-20
2.47769720639738e-19
1.68154003121783e-20
1.66459935549058e-20
9.80107405452686e-20
1.34396483670538e-20
8.29812354174864e-20
4.93246512390082e-19
5.23777566052491e-19
3.19431233576696e-19
5.95321170330434e-20
2.43849882692315e-19
1.27778385800337e-19
4.65048355809551e-20
8.20510191912154e-19
2.73160774570535e-20
8.17987609903298e-19
4.14956559313652e-21
5.81150997673126e-19
2.52012437943257e-19
7.28319527906118e-20
4.11634644606091e-20
2.54336075066029e-19
5.81998738893723e-19
4.34951527955034e-19
4.97854858073264e-20
2.48809450542508e-19
1.08132286584928e-19
3.47892761127244e-20
7.30180292091951e-19
2.51294387817772e-19
7.13899515273708e-19
1.03476440968254e-18
2.22726083657491e-19
1.68143633246894e-19
6.07573481195874e-20
5.04594992498e-19
7.19038982304768e-19
9.32205304797057e-19
1.45254985795556e-19
2.13965713783441e-19
1.74611381825956e-19
3.40567112584589e-20
3.11375284376908e-19
5.929798458116e-20
1.08313417519288e-19
6.82431634180268e-20
5.79243809824934e-20
5.59677275170207e-19
1.81530180517081e-19
2.09058720635419e-19
1.56578852464652e-20
1.07602015884565e-19
1.11834905919588e-18
3.44173230706099e-20
5.62487505447139e-20
5.70410115227299e-19
1.12160072703169e-18
2.84328798270257e-19
1.81680589390453e-19
3.66630011384804e-20
1.24014569078445e-20
6.91541149749996e-19
1.32799010305597e-19
1.2553772773458e-19
3.61880421417576e-19
7.89147790873082e-20
9.12242897732647e-20
1.20249061117474e-18
5.1697207689329e-20
5.20372026950876e-19
1.84694281496956e-19
1.46496388221721e-19
2.13551545024163e-21
3.40205857584924e-19
3.93871589277762e-19
4.61966093099341e-19
1.17797284229195e-19
2.85223861259219e-19
3.7871179649516e-19
4.86070370468221e-20
4.58360576890991e-20
7.06106468159315e-19
1.26861927365867e-19
3.74396061158331e-20
1.74382200602915e-19
1.11570158939106e-19
7.0088518453848e-20
4.33920015667465e-19
8.25783599410605e-19
1.78838230961938e-19
7.16043346669976e-19
9.59232557047828e-20
1.02820093409542e-20
5.31317952675094e-20
4.44238660378938e-20
4.79183553362011e-20
2.43746274375039e-19
3.01534302447843e-19
1.78447107596935e-19
2.04983683791293e-20
2.80373520551805e-19
2.97645891730936e-19
4.91638688107276e-20
1.64422458801342e-20
6.87643729381009e-19
2.24066193909795e-19
9.5167997643762e-19
1.8756888499118e-19
2.73327598570477e-19
3.97579096297502e-19
2.4321520628578e-19
5.47009967968217e-20
3.75387788369047e-19
1.40274987983193e-19
3.57899506177607e-19
4.00913689323762e-19
6.77486720680619e-20
4.68596921490687e-21
1.0231305638617e-19
6.65008875392407e-19
3.37840925613332e-20
9.30904825575924e-19
5.28356425795281e-20
1.70949749820445e-19
4.03967652287817e-20
5.70784461930557e-19
5.07106028905115e-19
5.43389609233793e-20
9.41299886855766e-20
6.4305233371397e-20
1.91922587805031e-19
1.93242435713341e-20
1.23229926918918e-19
3.39746122854467e-20
4.14798595166825e-19
7.32756197340849e-20
1.82266587951648e-19
3.11198492816052e-20
4.20153377814222e-20
8.63161370756014e-20
1.98465605741605e-19
4.27603329081996e-19
1.35312050288735e-19
1.91089814574072e-19
1.9734848129699e-19
6.4879168958456e-19
3.34411772172233e-19
1.46493338297537e-19
4.62377143928692e-19
1.37006855169284e-19
2.31076109046764e-19
2.43729025039661e-20
2.12126731207209e-19
5.16361398216582e-20
3.73902265119712e-19
3.10306519182298e-20
1.21325328928458e-19
2.69101446448314e-19
2.5032890362242e-19
5.50367250271448e-19
2.00896864551048e-19
3.55041456160102e-20
1.20624997532376e-19
4.63577361691925e-20
1.0926299244698e-18
1.83719564251569e-19
1.32643057501429e-19
4.743030394564e-20
2.61453759525632e-19
7.66260095826788e-20
6.54737904297788e-20
9.61060058554712e-20
2.62074067838058e-19
5.00451765502954e-19
4.71545382191159e-20
2.95924014267963e-20
9.9088563207483e-20
5.12000821304481e-19
6.00510073384652e-19
5.07022268207311e-19
2.42023173395793e-19
2.62844917571554e-19
1.10017994010163e-19
1.46295911518056e-19
2.23668184609621e-19
1.23482215133437e-19
4.84875961803431e-19
3.35658278917293e-19
4.62621190982538e-19
7.09211247895199e-20
3.61899275787312e-19
1.46308370823423e-19
8.8733039162872e-20
2.27960105727131e-19
7.33790829515732e-19
2.00046877008275e-19
1.35246485784839e-20
2.50156386828985e-20
1.09019333768139e-20
3.79674790317882e-19
7.52317385286204e-20
3.45105054944507e-19
1.90660028070602e-19
2.9781815219777e-19
3.71339030599993e-19
6.27583231105656e-20
2.99804273312555e-20
1.90651722748494e-19
1.31972268004883e-20
1.44675405108131e-19
1.43595394188086e-19
5.66323159580233e-20
5.17165304648425e-20
2.6598174555402e-19
5.16843327441139e-20
2.4324967692181e-20
5.16336964344335e-19
9.85822273525952e-22
5.70368137869531e-19
3.6238503140322e-19
3.7788120357965e-19
8.33281551221596e-19
3.18406600285606e-19
3.37037250624847e-19
1.47322610288019e-19
3.5409849049186e-19
2.61256821962942e-19
9.87532951277486e-19
3.1519180674687e-19
9.66707573147086e-20
1.30216280435473e-18
5.06763447403144e-19
7.13091058206608e-19
4.77256763943213e-19
2.82304823097273e-20
4.87595409472082e-19
2.03918869983362e-20
9.87887684616868e-19
1.54046897814038e-19
7.11260816404122e-20
2.63394590419009e-19
3.59796064933602e-20
3.4075369303943e-19
3.25773424266319e-19
2.7617858927781e-19
3.38349600804613e-19
5.43260371165761e-20
1.37462816466903e-19
4.70488720459823e-19
2.75264483508102e-19
1.02228917485571e-19
6.31108379022425e-20
4.17032310780784e-20
8.5670914927627e-19
1.08233453044866e-19
3.42638829631614e-19
2.79769059758824e-19
3.83978868661487e-19
4.20166660680364e-19
3.12420920029908e-19
2.73304150759276e-19
6.99594493039622e-21
1.75862908733167e-19
4.63240011706994e-19
2.83193986146807e-20
1.14972376014287e-20
1.49673210698633e-19
2.61768402150092e-19
2.21784458630812e-20
2.4533209859793e-19
3.82989616754528e-19
4.24471077502998e-19
8.06903760794606e-19
4.72303581816624e-20
1.31546422550894e-20
1.83229817835726e-19
4.48004946133512e-19
1.63348126451279e-19
1.71967647771384e-18
3.65427567590701e-19
2.00566159419646e-19
7.27806079461136e-19
3.49693670301117e-19
1.45595781399826e-19
3.82410157138921e-21
3.68576653808942e-19
3.04463487249283e-19
3.11655688945295e-19
1.31829381167051e-19
1.6368321186072e-19
9.65600194457089e-19
1.67504396551126e-20
2.4785834793492e-20
1.04749220831245e-19
1.48689396051073e-19
3.08443227432916e-19
1.16093573071821e-19
3.79061222544926e-19
4.98815252682287e-19
2.48455256875318e-19
8.18316216199459e-20
7.88964350741997e-19
3.00197709673281e-19
2.49103490873463e-19
3.03645636118825e-19
2.34763245866535e-19
1.00917801669897e-18
3.75126309918387e-19
1.63531301586833e-19
4.86711763667801e-19
2.1132895559844e-19
1.45907164786747e-19
3.78937052985398e-20
5.86872948011875e-19
5.78740072766886e-20
4.13441133061932e-20
2.17037746049988e-19
9.34687920190029e-20
1.29155936871277e-19
5.07917875289738e-20
8.13157669734593e-20
1.99553491571247e-19
5.93601087333903e-20
1.58124389394524e-19
2.37502573232992e-19
2.63143029884411e-20
2.97624286270064e-19
2.77884865405728e-19
2.65922652918185e-19
1.53042770202169e-19
1.10504573651089e-19
2.13519726893935e-19
4.5740437162526e-20
1.46286650640347e-19
3.22035549612606e-19
8.92864199351954e-20
4.80167451538164e-19
1.02452861036583e-18
7.07178740032646e-21
1.83232933596331e-20
8.03915053612958e-20
4.00910789661741e-19
7.10319325080265e-20
1.13298132606946e-19
5.77999931675676e-19
2.03316764417369e-19
8.30691672943099e-19
9.52704401833516e-20
1.03357339380605e-19
2.53675676405298e-19
3.59965883848411e-19
1.46059513487354e-19
5.23052817860315e-19
2.64076164603351e-19
2.527125966345e-19
3.17176131092919e-20
9.50800436125274e-20
2.01728033427759e-19
3.19659181905456e-19
8.53853181777347e-20
1.35639909758746e-20
7.31212979161757e-22
2.24173811877458e-19
2.59144098999346e-19
2.99452085804197e-19
5.19552506128049e-20
2.67989386031766e-20
1.80194172531894e-19
1.73950282207367e-19
1.12776198787854e-20
2.37534442843329e-21
1.99605073971557e-19
2.80767501770743e-19
8.88726782695679e-19
1.15815467919807e-18
2.5797062769769e-19
3.87067306041534e-19
9.27365013697711e-20
1.02475030688207e-19
5.77360326796169e-20
3.1995420678295e-19
1.33369691745541e-19
1.71210904939671e-19
3.92861318140329e-19
1.3148713037233e-20
2.36380815771211e-19
3.86525670474171e-19
1.58873607281337e-20
7.32255246462987e-19
3.4313013444451e-19
3.37583036460461e-19
3.15947477194598e-20
1.67829110545593e-19
2.76034714086754e-19
9.95029053122128e-20
2.15241048258851e-20
6.51691826113109e-20
3.16506267113239e-19
1.40437447483467e-19
4.90064485967409e-20
9.00750693162274e-19
1.88422970423919e-19
2.67683978299555e-19
6.86417002883471e-19
2.31598107652707e-20
2.89107515830623e-19
2.00932326359729e-19
2.81200012204775e-19
2.93988392740767e-19
1.42620766657847e-20
3.72247199546777e-19
3.50391026004117e-19
4.92427923157353e-19
1.25793966033765e-19
2.40916301967113e-19
6.77658417236975e-20
1.12843011377317e-19
4.95821476169871e-20
1.79790057050827e-19
1.98331505466918e-19
4.49683366358582e-20
2.02631337546115e-19
4.6408291648285e-20
1.05566893947256e-19
1.33505669474657e-19
1.12287040832469e-18
2.56287998779526e-19
1.26752344201688e-19
5.76421051555985e-20
3.81546950013492e-19
4.03195781440617e-19
9.40530757766625e-20
2.46367833950726e-19
1.74572176854713e-19
6.66230238677899e-20
9.43397699494675e-20
5.33798406866766e-19
1.44470208710887e-19
2.73116659146013e-19
8.45957313382554e-20
2.54157495932519e-19
2.34507201392824e-19
1.01236515490175e-19
1.24863658287184e-19
9.37054967140834e-19
1.44092568168726e-20
9.19324235438675e-19
2.77703482091547e-19
1.31939405598878e-19
3.09276179783986e-20
4.51989706244015e-19
1.49186100775994e-19
4.47900533599119e-19
1.22858955509705e-19
2.83495830821661e-20
5.7141453544476e-19
8.02220305320872e-20
2.03922645550521e-19
7.33206125566844e-20
4.16810761091772e-20
1.14542441321253e-19
7.93222430959199e-19
3.15083467802988e-20
2.54615919031994e-20
1.12312197706069e-19
8.57975746399236e-19
3.64259294653094e-19
1.65396353660242e-19
4.99207111717234e-19
8.7272256881959e-20
8.2577572191233e-19
4.6780631565028e-19
2.31614898134486e-19
3.04239272991989e-19
7.11191143053692e-19
9.40278126105427e-19
8.76099881088126e-20
4.39187368549847e-20
6.10268341194424e-20
2.22596114908801e-19
2.08775665490081e-19
2.28893865429584e-20
2.26769518290143e-20
3.59394684048511e-19
3.71497917972958e-20
1.73554927363222e-19
5.17349711359938e-19
3.13402493413533e-19
4.97294676931981e-20
3.34433225743661e-21
1.00385442441159e-19
1.03658406978338e-18
2.81618969630522e-19
7.23885781497032e-19
4.44988585569387e-19
9.32044192653857e-19
9.3815512747284e-20
2.85014580120139e-19
2.62240157155989e-19
8.8598243178766e-20
1.3083111964645e-19
2.19925998270458e-20
6.80271620632822e-20
2.89355127294802e-19
1.08279470134672e-19
9.19561919499875e-20
1.71425822601506e-20
5.70304848801916e-19
2.0599995991585e-19
1.84278886802503e-19
4.13287624046766e-19
1.09754882771023e-19
3.17481561693124e-19
6.04968575568056e-20
2.00665299115125e-19
5.34235910534993e-19
3.35592489822244e-19
4.95905766116679e-19
5.46612112277075e-19
1.62568370409947e-19
5.04665702207683e-20
1.20072581245398e-20
2.33947715339012e-19
3.71275218011411e-19
7.31840914677058e-19
8.92061439245604e-20
9.1634136452734e-20
1.84400207327153e-19
7.04384673987257e-20
4.23142048902405e-19
7.52514188311516e-19
1.07373506955954e-19
3.12330051737107e-20
1.18605545209162e-19
1.00421068333903e-18
8.47411163336607e-20
3.5778447642851e-19
1.67324240275745e-19
4.31109156282262e-19
1.10904563080402e-19
2.08851077389796e-20
7.40867887380128e-20
2.7660296567696e-19
3.89906145934429e-20
2.36954992135914e-19
2.1559947317628e-19
3.75351481858155e-19
5.45428244426709e-19
1.06338760172326e-19
3.91560357013197e-20
2.64827346394162e-19
8.25245731985587e-19
3.27617570040247e-19
3.00754094223485e-19
8.67271343500981e-20
1.58660466817118e-19
6.75644520467986e-20
4.76547328895978e-19
2.69123636838921e-20
3.25654607904211e-20
2.84427608706421e-21
3.78267347463991e-19
8.28733971887227e-20
6.17771293888139e-19
3.04104576462438e-19
2.73517539891654e-19
5.82873388915741e-19
9.46423318348146e-19
1.34571948354072e-20
6.92517513270344e-20
2.29804745629668e-19
1.5298944281857e-19
8.69626545865895e-20
1.37421958969433e-19
2.00517903752594e-19
3.02280608021622e-19
4.15021940924387e-19
8.18928688082719e-20
7.06872213175832e-20
5.57535445867495e-19
7.37301648594629e-19
7.8444050263943e-19
4.47193124274006e-19
1.94442558774283e-19
1.75171189233462e-19
2.36070239917388e-19
1.01433134709017e-18
1.83283820851497e-19
1.85472019507136e-19
3.06539022113964e-19
1.16834645704311e-18
9.43831214112592e-20
5.12865830224506e-19
9.27047833113912e-22
3.17260208917108e-19
1.94922122294363e-19
4.19534946483394e-19
1.94806897920414e-20
3.15583025943179e-19
1.7288313472453e-19
1.8444586509925e-19
1.63696975449427e-19
4.15207267091972e-19
1.75742104257402e-19
7.14710607919425e-21
1.20247775116034e-19
1.94912444605882e-20
6.67516409524353e-20
4.68793721570773e-19
3.73185539391873e-20
3.1047956905918e-19
3.03610557986056e-19
9.0042359909154e-19
4.08588841634421e-19
3.38538676089237e-19
1.14804687049549e-18
5.82345623581371e-19
8.03734818537509e-20
4.43238956635778e-21
1.43683470206698e-19
2.03965518955585e-19
2.89963485929196e-19
7.89562411922741e-19
8.78452120962821e-20
1.5705263138871e-19
8.52306071703717e-19
6.65153167804316e-20
2.16193904785284e-19
4.88414855070396e-20
1.16162283957909e-18
1.85454426944439e-19
4.5403040537524e-19
3.0399749478973e-19
1.6986655929633e-19
1.02446622589322e-19
1.91571530086841e-19
1.08845754171512e-19
3.15985024448167e-19
1.44587974594823e-19
4.9570795824642e-19
1.16413786661371e-20
9.50340003370925e-20
4.55652679880225e-19
6.21102914510551e-20
3.50782615243665e-20
3.27445875022956e-19
1.12488451740417e-18
5.92630829062379e-19
3.06351314871784e-19
2.02247233092266e-19
7.18779922122326e-20
3.55719107397184e-20
3.66389625403425e-19
5.33517492322005e-19
1.53104417931376e-19
6.24171199364219e-19
5.54822187113917e-20
1.03427863144104e-19
2.86705886484821e-19
1.73180379530033e-19
5.22605876622384e-19
2.28213815068361e-19
7.67441865066507e-20
8.39588855857693e-20
1.55645907984573e-19
7.18719227742933e-19
2.17053789444213e-19
1.5116941567526e-19
4.29904262529223e-19
1.04638710305969e-19
4.73646979557472e-19
1.39497260176789e-20
2.11602797463338e-19
1.52032732473226e-19
6.92463515065237e-20
5.90961730109693e-20
1.63147895099986e-19
7.20883116362624e-20
4.1131160588924e-21
2.26060218051578e-20
1.71572913366522e-19
1.93608084642358e-19
2.73090787790275e-19
5.12724603699957e-20
1.91893936174565e-20
3.06726859411973e-19
2.76872361743122e-19
2.48606317684175e-19
1.68096031184759e-19
4.75621801566564e-20
7.64814695268698e-20
1.6520658708925e-21
1.10697090564387e-19
6.81774671233618e-20
4.97915294312641e-19
2.36877637027279e-20
2.63221926115252e-19
2.95595352444176e-19
8.77479679844356e-20
7.2663042073385e-20
1.72945432161494e-19
2.54121292013976e-20
3.49789633415457e-19
4.06703313726173e-19
2.57911375787096e-19
2.68101400857443e-19
1.65785947255995e-19
1.76561000192729e-20
1.96963421058944e-19
1.97048450649673e-19
1.92852266404851e-20
2.08879094245816e-19
4.3376689165409e-19
6.54828706787009e-20
3.74826163886577e-20
1.33500998593916e-19
2.27635970753409e-19
3.81128849367793e-19
3.99176254900487e-19
2.6865801527482e-19
1.38929838508324e-19
1.95496180588741e-19
3.84474660684266e-19
1.29940782349527e-18
7.16472435286594e-20
1.9145220061673e-19
1.4797643711718e-19
1.70392464751968e-19
9.47768919830626e-20
4.99409056425292e-19
6.26801839345998e-19
1.99933912365425e-19
2.63853863466576e-19
1.22481433887769e-19
1.1070677007316e-19
1.80073120543064e-19
1.27094067901191e-20
1.0062830756088e-18
7.91601142394632e-19
2.8953991724688e-19
2.53648276800386e-19
3.3263526338504e-19
5.98909952256482e-19
1.00527775010819e-19
4.91081679974596e-19
9.1518780319935e-20
6.43070910666578e-19
1.65607172524273e-19
1.0396505773581e-18
1.23790910501922e-18
2.70458003447134e-19
7.58514019373348e-20
3.19397488439432e-19
1.92401217161291e-19
4.56686326973822e-19
6.05351392949391e-19
2.0560360196571e-19
4.63337610635099e-19
2.78930442381119e-19
6.62847181727273e-20
1.63542142515783e-19
5.22852856009053e-20
1.353672363748e-19
2.11641274436303e-19
6.05508256349129e-19
1.47285470444369e-19
1.28231944006825e-19
1.50281510629673e-19
2.88211984261101e-19
5.35432593920473e-19
9.61624786289791e-20
1.93455446247526e-19
8.99468273403881e-19
3.11384976397363e-19
5.4082011469225e-19
4.22926963458987e-19
1.87774222296305e-19
5.50012071779179e-21
1.17312715730028e-20
7.45686543437276e-20
2.25721398586132e-20
1.19607731377937e-19
6.40940257914303e-19
9.67804483845324e-20
1.12455232648202e-18
1.1553873810408e-18
1.72737007083366e-19
1.25220174467229e-19
1.42770592003698e-19
5.17797638856847e-19
4.45119575872063e-19
2.86177818885475e-19
7.11262105334466e-20
3.29331317105402e-19
4.55348159824828e-19
3.49380226923747e-19
3.41112043112143e-19
2.78036487315434e-19
6.34029305143802e-19
2.1029488861814e-20
5.01876738047199e-19
5.73198540935116e-19
1.09436488932517e-19
4.92693917220275e-20
7.05018647964389e-19
6.13236934807133e-19
1.87404071582075e-19
9.60382164915041e-20
4.90148733061281e-20
5.18306497250528e-19
1.73095099213459e-19
3.16081615469012e-20
1.16597792719699e-20
1.80380156009528e-19
6.05264696405652e-19
2.2418792976869e-19
1.42403760718417e-20
1.41196594088314e-19
9.5710507894655e-19
5.4214371413833e-19
1.47766778492212e-20
7.78413122113933e-20
5.92265119457037e-19
1.19223931259766e-21
1.50584703082019e-19
6.18442403469003e-20
1.02865275912034e-19
1.97449746485899e-19
7.26875657764399e-20
4.15989177638978e-19
2.81671398348638e-19
5.73949995679805e-19
2.9606649114273e-19
3.37061569958378e-19
4.81640660047449e-20
3.90236362766449e-19
3.72097361873002e-20
1.47110916937944e-19
4.75795064458187e-20
2.7580515962123e-19
6.68251133536701e-19
6.80566099076809e-19
1.44416186080648e-19
1.46260608378854e-19
3.19133138662356e-19
5.29323922198122e-19
1.24063438354249e-18
9.97958651755846e-20
2.16823727074319e-19
2.02398709464513e-19
2.7043829534241e-19
2.08862878036868e-20
2.07073290769957e-19
2.01712897370671e-19
1.8907087653708e-19
1.95591492751552e-19
2.6889238218757e-19
3.51805432432601e-19
2.13450125657737e-19
1.02253504995751e-19
4.03222582386607e-19
5.50446262428736e-21
5.01172566543093e-19
9.47741858164441e-19
1.36498698838126e-19
8.6132833928437e-20
5.27031976938156e-19
6.46451157871553e-20
1.46925331092908e-19
2.33996813908469e-19
1.39748473767645e-19
2.36286343535394e-19
1.07932358857374e-19
3.07258234342461e-20
1.70410007826352e-19
4.37785097195246e-20
1.83725042584548e-20
3.98104231982383e-19
3.94717621370321e-20
1.58196831606404e-19
1.35871178338545e-19
2.84073949554333e-19
1.68310782422794e-19
1.98860249585623e-19
2.74487684231824e-19
2.06250547279124e-19
5.54045697434584e-19
3.44462708887815e-19
3.09376748961934e-19
2.36909903468607e-19
8.07641606998823e-19
3.70598509003281e-19
3.6937757446831e-20
1.74137697435814e-19
1.39000009775295e-19
7.54806734281071e-19
5.06340910982424e-19
2.19492648413727e-19
9.47974062925567e-20
9.61225074245128e-19
3.04824851306395e-19
4.60335677487376e-19
2.69985364084072e-19
4.62576927180578e-20
3.14866439583878e-20
3.29065848026506e-19
7.89460857680241e-20
6.29572568555425e-20
1.99751245648855e-20
8.38547039518435e-20
1.86189981483898e-19
3.26150366387317e-19
9.91985173079234e-20
1.47033915184015e-19
4.93037853140645e-19
3.62651784494383e-19
8.15582308673867e-20
3.20642437871108e-19
1.28836922217067e-21
3.72092193815496e-20
7.79809143581574e-19
1.01668303259459e-20
2.3512088988518e-19
2.9618102264412e-19
5.30636916082129e-20
7.01589998601331e-19
7.78168640836781e-19
6.86427450108901e-20
6.26021569606465e-19
6.31488816238179e-19
7.56456590394317e-19
2.88253241851684e-19
1.45543843667689e-19
7.88501114786615e-20
1.60547060318329e-20
5.103469509891e-19
6.25363134324368e-20
2.19096402827221e-19
6.77694968252911e-19
4.1557832791293e-20
2.53036616838759e-19
2.10540511770511e-20
3.13117517831758e-19
2.54416515605339e-19
5.04636545675908e-19
1.87978107791509e-19
2.80059148421974e-19
6.47305388575487e-20
1.42979890482741e-19
7.49907640417563e-19
3.18588712649512e-19
7.93671527280357e-19
2.81570877140897e-19
3.28397413964517e-19
1.21287922120278e-19
8.79729697883311e-20
2.53371685778232e-19
1.45741845927043e-21
3.40539625786147e-19
1.87969305596229e-19
4.67949977728327e-19
2.183783326242e-19
4.78467909779794e-19
1.01549658570572e-18
7.83166562172944e-20
3.03918397750087e-19
2.40255057246437e-19
3.15188134056052e-20
7.6818805285257e-20
4.59025873510024e-19
3.82742715387193e-19
2.34213630333847e-19
2.46001620046042e-20
1.12298819146623e-19
1.63124708734079e-19
4.0988517486455e-20
4.02196784724039e-20
7.08272710290065e-20
5.64021898445953e-19
3.65161317122104e-19
3.50564265242199e-19
3.78995956937801e-19
1.71958153991815e-19
6.85018945816666e-20
2.11538155576628e-19
1.11443050871364e-19
5.24536204646107e-19
9.1849314841349e-20
7.0043428888042e-19
2.54939570825061e-19
5.47819106982297e-21
9.9795910439663e-20
1.85278064156276e-19
1.91833272729129e-19
3.34593874165831e-19
9.26474794586487e-20
5.03117442118241e-19
9.99041995440616e-20
8.87520431784948e-20
7.88336464763868e-19
5.04311231444155e-20
8.45773597525876e-20
2.94311808145387e-19
2.40680141309056e-19
3.20533033600614e-19
1.44365544772521e-19
6.10974792297576e-19
3.2129727140315e-19
1.25975854073892e-19
1.69000346834136e-19
6.31736845710369e-19
3.17459920597421e-19
7.41917627486043e-19
1.68885532462229e-19
4.6247612727464e-19
3.15229801869098e-19
6.92024960137405e-20
2.24199964785673e-19
5.86155403572638e-20
8.15642407344709e-19
6.97475442202374e-19
5.0097635049464e-19
2.33483275181666e-19
8.26231126442777e-21
1.28636080216807e-20
7.98016120783892e-20