/*--------------------------------*- C++ -*----------------------------------*\
| =========                 |                                                 |
| \\      /  F ield         | OpenFOAM: The Open Source CFD Toolbox           |
|  \\    /   O peration     | Version:  v1706                                 |
|   \\  /    A nd           | Web:      www.OpenFOAM.com                      |
|    \\/     M anipulation  |                                                 |
\*---------------------------------------------------------------------------*/
FoamFile
{
    version     2.0;
    format      ascii;
    class       scalarField;
    location    "0/lagrangian/dsmc";
    object      ERot;
}
// * * * * * * * * * * * * * * * * * * * * * * * * * * * * * * * * * * * * * //


100001
(
2.79796537439138e-19
4.75273078304926e-20
6.07647842158459e-19
3.27889506785974e-20
9.85546706051774e-20
1.22730811760184e-20
9.45529321994984e-21
9.58437896869845e-20
1.48766552228653e-19
8.06470326280647e-20
2.23515022160899e-19
1.19852543823921e-19
5.01434502935648e-20
1.64669552224367e-19
3.54895545480207e-20
2.10470727432858e-19
2.1108450509638e-19
4.25788593179655e-19
2.04148170258212e-20
5.23042832552359e-20
1.68532632539799e-19
1.25441877762822e-19
3.31695924166876e-20
3.06795716851376e-19
1.09189094662656e-20
1.91571216260673e-19
1.20558056386972e-19
2.14711005876128e-19
6.2658269112967e-19
1.73877367988249e-20
2.45412520553895e-19
1.4204296744405e-19
3.02724366169775e-20
1.49010649148285e-20
6.28281556436919e-20
2.5625607906408e-19
2.47874658990209e-19
9.75753624262918e-20
6.76259252452458e-20
2.06282373259373e-20
4.85337089930876e-19
6.83363929363669e-20
9.40485914685637e-20
2.76464613777714e-19
1.33546335440344e-19
2.91358764260079e-20
2.73494674914856e-19
9.07576489101295e-20
1.35887759525254e-19
1.33078797631312e-19
8.75146533496397e-20
2.32792695017312e-19
4.4833995104009e-19
8.33832325382204e-20
2.60108453816544e-20
7.95229410278036e-20
7.33686289212359e-20
9.39641473846653e-20
2.41863897479886e-20
5.77691879035273e-20
1.70065529843372e-19
8.56153838858959e-20
3.34019754975941e-20
2.35373844820213e-20
7.96707895768576e-20
2.40934666715733e-20
7.56064102681385e-20
2.99193894590662e-19
2.32253411989839e-19
2.57032332601494e-19
8.67965855798462e-21
2.67737996866821e-19
1.15412578077533e-20
4.01312532735276e-19
1.07782779731295e-19
1.21528624229412e-19
6.41933519902458e-20
1.49033765491734e-19
8.87303877793469e-20
5.59693584764224e-20
1.73382035099242e-20
2.49641316273691e-19
8.38646981843715e-20
3.10048226400634e-20
1.14632520353786e-19
5.12320519372662e-20
6.14116390860437e-21
1.96005460818648e-19
1.15516000791837e-19
3.92941823765179e-20
3.47967036747661e-19
3.05998602873509e-19
1.52900476450781e-19
3.79231309431754e-19
4.97368288697596e-19
3.60134311336192e-19
1.9502378125942e-20
1.22569507562554e-19
2.43681531823675e-19
3.52603392674526e-19
2.51721423567611e-19
1.49853736602861e-19
5.75725013497048e-20
1.25925280501822e-19
9.72923033057149e-19
2.03346896601526e-19
3.87446450316204e-20
4.58564754730526e-19
2.57268740466329e-19
2.34809275609557e-19
9.62343861980043e-23
2.55420501776607e-19
1.42341636537446e-19
5.49924261685622e-19
1.55480532115969e-19
2.51371022729702e-19
2.4372573286496e-19
3.61176259357296e-19
6.34719507292965e-19
2.2695340168337e-19
5.85865618242715e-20
3.41542592105096e-20
8.12884784186079e-20
7.64619240210817e-20
3.31810604975235e-19
9.40164444383404e-20
3.20992085050145e-20
2.55325102184415e-19
1.15756680614936e-19
3.68881596772681e-19
2.80194853223244e-19
9.2418973435693e-19
1.73390232059261e-19
6.50823832369097e-20
3.26586014918578e-19
1.81537237204976e-20
2.84834274296583e-19
5.66875907204281e-20
7.89492874312834e-20
5.55203217634963e-20
7.8634559347525e-20
1.75734758776665e-19
1.04199773552667e-19
3.35767817145591e-19
4.9711950385855e-21
2.60600686465227e-19
1.58397775975217e-19
1.15251651656234e-19
2.46033409811427e-20
6.28208731107103e-20
2.24049719624738e-19
4.15679809249728e-20
1.73839478771638e-20
6.37389079768903e-20
3.98080882600607e-19
3.40910581973586e-19
2.53117818650635e-20
3.38369153868046e-19
1.87634677810866e-19
9.3638609281101e-20
1.45567467772146e-19
6.34632138927783e-20
9.37083484123587e-20
7.50324516320815e-20
2.12518649178768e-19
8.28018388970177e-20
5.11432248967045e-20
1.25094497753069e-19
1.18101722487947e-19
1.22261809428092e-19
3.27028040942836e-19
3.20280519206615e-19
4.40467340009974e-19
1.10213060166663e-19
1.61586023518152e-20
1.80168502416529e-21
9.6981189312009e-21
5.99194688242279e-19
2.27315045464862e-20
1.72025798752126e-21
3.85309997204429e-19
6.51857535819922e-20
2.32822219354377e-19
1.15752946261451e-19
1.82695552611613e-19
2.53484736849229e-19
4.44101635921415e-19
1.444210016734e-19
1.00629103282939e-19
1.42432080375324e-19
1.61504442410481e-19
1.95644820508802e-20
2.02870880153545e-20
1.37271871077693e-19
6.29228530270359e-19
3.16675999856097e-19
7.36627404598086e-19
3.28235797551237e-19
5.88205800299034e-19
3.04794449165287e-19
2.2006928783896e-19
1.41898540856954e-19
1.98740640420142e-19
4.17522818622418e-19
1.23687583048367e-19
1.37197650712989e-19
1.5558715906055e-19
1.57082046572541e-19
4.25689988735662e-21
3.86121676889253e-19
1.25466421213643e-19
2.94035860814089e-19
7.50064374396724e-20
2.66381115950845e-19
1.39637021078984e-19
2.17515524268594e-19
1.95497049606649e-19
2.84646638796387e-19
5.3173759230514e-19
3.38101220646571e-20
4.07109393342489e-20
3.57819734961461e-19
6.85581782011325e-20
4.94411928092393e-19
1.25912548737538e-19
2.50148828624653e-19
1.3981032660093e-19
3.28768268376198e-20
1.7088182161839e-19
3.33653190247833e-20
1.63024329600904e-19
6.29014323787827e-20
7.26727156141356e-20
1.11968956600622e-19
1.97526251281997e-19
4.18285632140764e-19
5.52858649886435e-20
1.28370242809349e-19
5.7666335741045e-20
3.94048764209739e-21
3.18952229565549e-20
2.42948993774837e-19
1.52136985988005e-19
2.74098006333381e-19
1.30431715343481e-19
1.55869034199235e-20
1.95860113431991e-19
9.7987033738037e-20
3.0711176299931e-20
8.72124019747204e-20
6.99657702323741e-20
1.72400945491425e-19
4.53991663308987e-20
4.34194625875874e-20
1.02018291519315e-19
5.57551628125983e-20
1.73068156329999e-19
1.65493586080613e-19
3.76791512991658e-21
7.97505388815485e-20
1.95395278679837e-19
1.82936191877991e-19
7.2745367568972e-20
4.72948835508871e-19
3.30083553328796e-19
2.27899539097648e-20
4.82839308022082e-20
3.67387562063071e-19
1.06227084220262e-19
6.44023714930734e-19
6.97911010242576e-20
4.47091828509268e-20
2.49418081179662e-20
9.59349461249483e-21
2.18074877838989e-20
3.34547531039643e-19
2.13980752830484e-20
1.81676840872742e-19
9.60597674444893e-20
3.64865965205673e-19
7.28791019539474e-20
6.67868171945143e-20
4.78667491327826e-20
5.30491683704967e-20
1.01052045853564e-19
1.27915711945471e-20
3.03841711896161e-19
3.06281165903317e-19
8.0574646256575e-19
2.8893883868451e-20
1.6284589103826e-19
1.49377887933259e-19
1.03118443224745e-19
2.63641913743778e-19
3.12774971133863e-19
3.06179099486294e-20
9.02844323433079e-20
3.10189995197003e-19
3.03030054376431e-19
5.1529071577645e-19
3.13375077193064e-19
5.05334111610258e-20
1.64496013765223e-21
4.01813459908619e-19
2.30991194875949e-19
3.34160574209861e-19
7.45307022068017e-19
3.25056875785541e-19
2.8397588310949e-19
3.16985765827576e-19
5.35670403177326e-19
4.99999057920428e-19
2.94305466744361e-19
2.69559504716682e-20
3.40928382109395e-20
3.08955029994937e-19
2.54225401994971e-19
2.49321884693048e-19
3.17187434468864e-20
6.30780270305805e-19
1.6818131692659e-19
4.54865791798106e-19
2.2783364610439e-19
4.714015055952e-19
2.39279415701053e-19
1.02171024839137e-20
5.20093496679042e-20
8.66329803777339e-20
4.39415925672027e-19
6.61666470150203e-20
1.26324088669581e-19
2.26510182521634e-19
6.0634715266223e-19
8.25676816427818e-20
1.31671283251142e-19
1.13689088078072e-19
1.3092223993503e-19
2.22465858400717e-20
3.15047933147745e-20
2.06070836986816e-19
1.54394813063509e-20
2.32016061493936e-19
4.67645842482474e-19
5.79192218876297e-20
1.73050157017536e-19
5.577230230403e-20
3.57607180866748e-19
2.467813516334e-20
7.31754418358618e-20
6.80938047253573e-21
8.62940423444445e-20
5.2483341762674e-20
2.18420945587444e-20
5.44381994599288e-20
1.05690820316957e-19
3.30213152509589e-19
6.26266595499986e-19
6.07181260741219e-19
3.87031004402307e-19
5.19079049716823e-19
4.70445962551944e-20
1.87854992081203e-19
6.02477082774664e-20
5.40617910644911e-20
1.82514368777344e-19
1.74025519218622e-20
3.9850696446491e-19
3.57692676713241e-19
1.31233517131874e-19
2.81394910503432e-19
7.20778089389529e-19
2.22431636848667e-19
4.2869998624471e-20
2.75028305102215e-19
7.8119137637808e-20
3.35814894388144e-21
6.63918557046233e-20
1.15688928877395e-18
5.701701513847e-20
5.46594342161689e-20
2.57747780336901e-19
4.78422874213131e-20
1.60808602047299e-19
3.01177530493382e-20
8.03447971117796e-19
3.87502841112457e-20
1.82213346443235e-20
4.67612441459037e-20
1.56450681132002e-20
9.10910601199138e-19
1.04066968260222e-19
1.81456818894068e-20
6.85842477191123e-20
5.26345756496788e-19
1.55559069457809e-19
9.39282703599667e-20
1.92907542887795e-19
1.16131174157903e-19
3.71357471694522e-20
1.71016850749155e-20
1.15867649331918e-19
7.33242006267888e-20
3.92580709278769e-20
1.40052827930661e-19
2.98558270386015e-19
7.34735830792316e-20
2.24606797999114e-19
1.90250211905104e-20
1.60292127502175e-19
1.11141550227401e-19
3.81941376334718e-19
9.04718741046572e-20
8.9277625322411e-20
1.65234950567356e-20
2.33650433338476e-19
2.28469798047283e-19
3.85250129541405e-19
1.3662372392863e-19
1.23753258064877e-19
9.70913107617776e-20
1.02996148110031e-19
2.37291047035428e-20
4.40796133430736e-19
3.10312091814308e-19
6.27986075092083e-19
5.1404443645702e-19
4.64393500334811e-20
6.90197453284736e-20
2.01370754807938e-19
4.41950242095575e-19
6.47121054338491e-21
2.68558988307944e-20
6.45628731857284e-20
2.86533089705637e-19
8.88797892060456e-20
6.37532247271544e-20
4.94466572262301e-20
8.99210749949585e-20
1.40804002559635e-19
1.35481989560485e-19
5.06532281774464e-20
2.46795560806495e-20
9.57343201059108e-20
1.09894065177532e-20
1.65868529062596e-19
7.88645968868482e-19
1.25456481876689e-19
3.41028927453474e-19
1.51616532081121e-19
8.25772706872996e-20
3.27264725216785e-19
1.12043392926903e-19
1.34106798780369e-19
2.95998019640644e-19
5.41764102745634e-20
5.21063184662113e-19
4.70451837594488e-20
1.49762159446009e-19
2.22423561876333e-19
1.96639610037748e-19
9.34722653674115e-20
2.6084592065649e-19
6.43062651169334e-20
1.58724713578934e-19
1.47518800205773e-19
2.52305892770423e-19
6.8291286570914e-21
5.49457619862619e-20
2.37242779435483e-19
7.24848123861403e-19
2.07914980621704e-19
3.55797897986619e-21
1.98898795496166e-19
2.08097287381472e-19
4.63765730101687e-19
8.28590745902832e-22
1.17976454764604e-21
3.69773922278635e-20
3.39407159188128e-19
2.16229754568191e-19
3.27926479538608e-20
6.0330341502273e-20
1.65364911287922e-19
9.10267214015517e-20
3.1529757836928e-20
9.81768160488968e-20
6.6130927501469e-20
1.00318687438887e-20
9.23006652231173e-20
3.1309502774159e-19
6.64257302280582e-20
1.37151850693139e-19
1.12092702311135e-19
3.82512289780948e-19
4.93934779918011e-20
2.4720790444225e-19
3.01292814808359e-19
3.51503295478012e-19
4.04049994646225e-20
6.78775152015689e-20
2.3476487303114e-19
7.24021252502739e-20
4.49980741998286e-19
1.38931470960338e-19
1.13313322171846e-19
6.82960431077946e-19
3.92278578849927e-22
3.28695857276398e-19
3.13209251265609e-19
1.78877826487477e-19
1.6867666742717e-20
1.18742261592276e-19
3.9891437814029e-19
2.23903405633009e-19
2.49126850073486e-19
3.53866869049062e-19
3.80234170911073e-19
3.81129774785446e-19
1.10415405211991e-19
1.95256558038123e-19
6.56880594124791e-20
4.74410592690021e-19
5.75395255768398e-19
1.03028455067014e-19
1.059166201743e-19
2.73894015130645e-19
1.42708439611274e-21
5.02639984579925e-20
8.41327376706922e-19
3.49712546151395e-19
6.35747442914326e-19
4.19487827008206e-19
4.90198250147906e-21
4.14110828591678e-19
4.40947802427989e-21
2.93949110499771e-19
1.73398478885153e-19
1.28575422749928e-19
1.98680615982013e-20
3.31878642062974e-19
3.59870837592139e-19
1.64045724791229e-20
4.81768505714758e-20
2.87400608000782e-19
3.11951212005326e-19
4.23538462647261e-19
2.85138227130594e-19
1.54886262890008e-20
7.69118058704516e-20
2.15866985039121e-19
8.45345253904526e-19
3.17559383548302e-20
1.46636406222839e-19
2.99572477593346e-19
2.06875901783231e-19
2.58003884770095e-20
1.7342753672877e-19
2.95736770506214e-19
4.45156668310071e-19
2.90805539866085e-19
1.74323578573517e-19
7.680060154773e-22
5.66562776227258e-20
8.65905013034744e-19
9.83012194672342e-19
3.2838547041079e-19
5.33782586017251e-21
3.22903018195558e-19
5.72956818786802e-19
7.18572229298295e-20
3.26591982186501e-19
2.6024491631683e-19
5.47824621012508e-20
2.00773769940195e-19
1.72503474004256e-19
3.78030482808802e-19
1.72522100502747e-19
4.5180896849283e-19
1.67879924891282e-19
1.92919811407009e-19
2.54686756176551e-20
1.10164299764132e-19
1.64813326306254e-19
2.71832352997789e-19
1.26330200879166e-19
2.60915209903833e-19
2.48467231127135e-19
8.52485949382146e-20
1.85102906426479e-19
1.98897885817629e-19
4.25160058011132e-21
1.3774846149124e-19
1.18518155342839e-19
2.65289290479344e-19
8.00102760271347e-20
2.64288236204427e-19
3.78770827379907e-20
6.80889351474236e-19
5.44824178122669e-19
1.21940890843272e-19
4.21844583364973e-20
5.44774504631486e-20
2.96289840942975e-20
7.28736528901873e-21
4.35504073666099e-20
9.21388956783719e-20
1.34762184703894e-19
1.76426650693001e-19
1.5970179775895e-19
4.46104391774871e-19
3.12678065701653e-20
2.79359701595274e-19
5.92560795050197e-20
9.5338332686495e-19
2.1981439265586e-20
2.15179424953871e-19
6.41390135734109e-20
1.57607658841704e-20
2.44838566973095e-19
2.59736238291536e-19
7.40409632339773e-20
6.77861590892998e-20
1.51839550666334e-20
1.90430431611033e-19
2.18509293430138e-19
4.80359473735586e-20
1.92024474661183e-20
9.80342923852729e-22
4.4779487872032e-19
7.61390198337877e-20
3.20629447787197e-19
1.51827912511943e-19
3.35776421478898e-20
2.97404259194923e-19
1.66227006042612e-19
1.17916817951595e-19
3.07976160452388e-20
1.67882635621637e-19
5.32735841293895e-20
7.68964025664752e-21
1.19888463413218e-19
2.88552418708649e-20
7.99305399307768e-21
4.73163385795785e-21
1.62677517367279e-19
1.23871211247018e-19
9.50135921735982e-20
2.52652560850753e-19
8.46236298538763e-20
3.44390325965952e-19
3.52577244753369e-19
2.7088106823801e-19
1.17384493368776e-19
6.10775673891334e-20
2.24967056586334e-19
1.79456830690376e-19
4.61777754495669e-20
4.1809458615214e-20
3.98946667388296e-20
2.77055598879324e-19
7.09711426028956e-19
1.41379538853039e-19
3.54229107944115e-19
2.69328949362055e-19
1.20560165407879e-19
2.07332002453686e-19
4.8506320944578e-20
1.46861632851196e-21
8.41676232440909e-19
2.75398634910108e-20
4.14557251183429e-19
2.04401824580422e-20
4.9002617617012e-19
4.66995841579221e-19
4.51321690199293e-20
1.78939685989207e-20
1.04401405413918e-19
2.94034008239176e-20
3.91951281765038e-20
3.90831424558907e-20
3.04782619907655e-20
3.06594905659391e-19
7.61648446887652e-19
2.67803814289573e-20
5.06667023294379e-19
1.52663190850235e-19
3.47348460499288e-19
6.60471633699434e-19
8.14741444797755e-19
4.45970151518035e-19
2.73199374284583e-19
2.07396888506881e-20
5.76938248467561e-19
5.94286171961349e-20
2.38365575074429e-20
6.13949023668434e-20
4.66225702422073e-20
9.50868207732132e-20
1.96800334540216e-20
1.36021025005198e-19
7.73841445647577e-19
1.55835798496443e-19
2.61056332408521e-19
2.39761708852455e-20
3.30755174229691e-19
1.3692614663145e-19
6.40688125360418e-20
2.06081480373806e-20
3.28143644099861e-19
6.02751691284442e-20
1.31308296008529e-19
2.09430944526826e-20
6.34012581715472e-19
4.26376059377614e-19
8.58582512132532e-19
7.98153431987061e-20
9.08027624945319e-20
6.58564979189238e-19
2.08345685872172e-20
2.848591878679e-20
1.07739561370722e-19
7.40373857914896e-20
3.81149900427644e-20
1.58858622822992e-19
8.57074897526113e-20
4.13508527505425e-20
1.26236543856402e-19
2.29325208445601e-19
7.98379595129838e-20
1.60775885940596e-19
2.8393460938529e-19
3.5591189096725e-20
1.62057362590344e-19
3.2413367976282e-19
1.29443040329596e-20
4.88746873433083e-19
3.05972986496409e-19
1.04936029575668e-19
1.07583735231952e-19
2.17617573133308e-19
7.7015316710329e-19
2.65146698660576e-19
1.38232035742052e-19
2.66921558063111e-19
3.70679598609868e-20
1.51520046167059e-20
3.36313523516204e-19
1.21949549918788e-19
3.81281956231225e-19
2.4154650745367e-19
5.5140632517945e-20
9.50827724051957e-20
4.18401490822306e-19
1.64012949044663e-19
1.38574727016577e-20
1.62086167758203e-19
6.30815902764888e-20
2.21152318886324e-19
1.84567991914187e-19
8.41763941043446e-20
1.11095998351094e-20
9.56588251579421e-20
4.52382362328803e-19
1.657343499356e-19
5.43030988232756e-20
3.03164510916633e-19
1.2436397653832e-19
1.92087503226612e-19
6.65515976120295e-20
4.60431991526421e-19
2.44866250718999e-19
7.14030741372055e-19
9.25809559480726e-20
4.2749944026456e-19
3.99117708780774e-19
1.06894380449871e-19
7.28693164414273e-20
1.66614718207496e-19
9.61800755492011e-20
8.06804548377817e-21
5.36730704664896e-20
2.69905511180337e-19
7.08125232522504e-20
4.79919017934365e-20
3.53292457728745e-19
4.8407875668596e-19
1.21325272034679e-19
1.21532322429861e-19
6.24519995740958e-19
3.64849248676289e-20
5.62527078660465e-20
9.44872485323956e-20
2.59496249037083e-19
6.7529681513165e-19
1.9197547249752e-19
2.25769416886008e-20
2.99247991415939e-21
1.6632281012044e-19
2.20674262154471e-20
2.64959563553937e-19
4.20400090564541e-20
2.24124886943728e-19
1.7722798738818e-19
6.17439644860944e-19
5.08358263699441e-21
8.0390246293944e-19
1.93559076875922e-19
7.28566411030984e-19
1.94611999847172e-20
3.06930658302874e-19
1.86883820671366e-19
1.60555003372636e-19
2.5849752512223e-19
2.12484571726539e-20
8.00864976155719e-20
3.06548612695423e-19
2.84675615496447e-20
6.63866344199827e-19
2.39239772677936e-19
7.84756766750823e-20
8.47181913670454e-20
1.0889149496747e-19
2.21320798062251e-20
1.66365357235793e-20
1.84325281922617e-19
3.55064753375146e-19
2.49039943979677e-19
1.1672797543744e-19
4.61363187016496e-21
1.50086337458024e-19
2.74704113026861e-19
1.60083940931758e-19
1.95965413680606e-20
1.15246828139968e-20
7.65152952277274e-19
1.68861297103758e-19
1.29407139490517e-19
1.27279209093953e-19
3.42790314123075e-19
4.26810053536353e-20
3.04663214207523e-20
3.86809949720589e-19
6.92858043538161e-20
1.31188983917093e-19
6.50804145075767e-19
2.09769800213924e-19
1.79993096328141e-19
9.37354557032882e-19
1.79395002509709e-19
2.10562882729877e-19
7.06249982485347e-20
9.59470762766202e-20
7.96064151374734e-20
3.48848228648445e-19
1.90139195285585e-19
3.6701388513824e-19
1.82994531313243e-19
2.0828514228889e-19
2.1534669901073e-20
2.42748157003407e-19
5.82132943730148e-20
2.47477697007763e-20
2.04150769245949e-19
9.43510501404965e-20
9.42331677002329e-20
2.45205792159208e-20
3.31491896009369e-19
8.43516851648238e-21
1.92199453831425e-19
2.60479570675812e-19
6.21021341648947e-20
9.85329525868203e-20
6.67333985329339e-20
3.95144232654827e-22
1.19187265181324e-19
3.91471918156276e-19
2.83257541499735e-19
8.93143958746692e-20
4.08360207654043e-20
4.44235318661632e-20
1.32827508395851e-19
1.65566962870303e-19
3.5350912917425e-19
2.54944758557046e-19
1.47231958458038e-19
1.52734643847532e-19
5.88047434066042e-19
2.66398614679812e-20
4.72406078855243e-20
1.15889626356e-19
2.32045115548906e-19
3.53828079754521e-19
3.72912269483721e-19
2.8909074511396e-19
7.51048515025541e-20
8.38857909844211e-19
4.25371001565885e-19
3.25535156460204e-19
2.85480967311396e-19
2.91037136995857e-20
1.08762357855398e-19
1.09050344305863e-18
4.82063779198201e-20
2.28533380397234e-20
1.20834931844775e-19
1.46027917312957e-19
1.81971723189346e-20
8.31726575650228e-20
7.28409770433856e-20
3.63604093896157e-19
1.87050404127956e-19
9.03616016719403e-20
2.92470017945256e-20
6.36641458524008e-20
1.51022365367801e-19
3.18196819672003e-19
8.62706020072457e-20
1.49166478071375e-19
6.60760431797634e-19
4.53732547669043e-20
9.52505120556568e-20
4.21891376439849e-19
1.31669264607593e-19
1.98655953870538e-21
2.21503451320213e-19
5.19742623523024e-19
1.25356902127072e-19
1.54182873826547e-19
2.68869827706017e-19
6.37813420817307e-20
3.25380943551482e-20
9.72433945699353e-20
9.21337433229654e-20
6.6197196385973e-21
6.81608366603271e-20
3.2007853736584e-20
3.21931788598008e-19
1.01850201217192e-20
4.53640466224168e-20
7.95563342692367e-19
2.17064001520748e-19
1.88790057240903e-19
6.62483586986906e-19
1.21087870925595e-19
1.7229206610046e-19
8.72988613812658e-19
2.41258700107977e-19
5.94692760447266e-19
4.96392743497268e-19
6.31745585701726e-21
1.92066559922369e-20
6.56023291513083e-20
7.68474213597965e-19
5.62535739155863e-20
7.57154713348382e-21
6.44106636194692e-20
2.19251397499412e-20
1.90959752994042e-19
6.31089304369056e-19
3.36085367725242e-20
1.87234479387601e-19
2.37913643389783e-19
5.27467475220293e-20
4.73834790064957e-20
2.0954065237047e-20
1.17930635118251e-19
2.08317732868052e-20
4.25076411485931e-19
7.78887033731432e-20
1.10284270350567e-19
5.83500325844564e-19
3.110974777362e-19
1.45316834997376e-19
1.34978151492994e-19
3.36581672955235e-19
1.80784324012816e-20
5.08893584619123e-20
2.36499751776773e-19
2.50718705267377e-19
3.51630672475792e-19
1.13488989001128e-19
2.87867519000844e-20
4.59076967009454e-19
3.19329394880113e-20
4.63349529448667e-20
9.28580031130468e-20
2.74289474587681e-19
9.76052968759433e-20
1.22383886882442e-19
3.08564931099827e-19
1.84393350068767e-20
6.50498527613314e-19
4.57673967399682e-20
1.2974428401273e-19
1.9198148121647e-19
2.0918562354566e-19
3.11789138840565e-19
1.53728445104134e-19
3.61682986445455e-19
8.16167348279559e-22
4.26953166966606e-20
3.19824579561906e-20
1.58867368224547e-19
3.87577844817253e-19
1.77526200267058e-20
9.78582525062627e-19
5.25956764904323e-20
1.99518156804742e-19
4.76365567971491e-20
2.33208466370793e-20
1.34393105273123e-19
2.91183289817664e-20
3.82613090959696e-20
1.16998936867537e-19
5.56752508344073e-19
2.05687547736499e-19
7.33332284856803e-20
8.9107173439424e-19
2.34157926437628e-19
8.38010355387594e-20
4.82059849898017e-20
4.24405408732161e-20
2.11402865646969e-19
1.82785990417913e-20
6.21163921867274e-20
2.55696948647876e-20
9.28776744363128e-20
2.48338042856883e-19
2.69686199428751e-19
4.15701905731627e-19
3.40219290181286e-19
6.76837840402847e-19
7.21733440727135e-20
1.12017184321988e-19
3.17795273368666e-19
2.38730428354618e-19
2.68805365790135e-19
5.60147798525458e-20
4.69089897399622e-20
2.57545426788316e-19
4.37475271708937e-19
2.34908594095166e-19
3.06016574343042e-21
9.42646620161637e-20
2.17243420283242e-20
4.95006002559413e-20
1.89000781065249e-19
2.72075505888626e-19
1.63013546896771e-19
9.68698246980264e-19
3.55365114094099e-19
5.85021450135162e-20
4.61720084143382e-19
4.64573996381701e-19
7.09748491127897e-21
1.18236410011863e-19
2.70860408999877e-20
2.49564071022061e-20
5.55865591351434e-19
2.29912419607521e-19
2.95155008377119e-19
2.28104004432558e-19
1.32520354182798e-19
7.32423849446951e-20
9.83704182812056e-20
3.64012162748837e-19
3.60265836554852e-20
2.49703417321251e-19
2.17264652076919e-20
2.87863404092145e-20
5.54925579748096e-20
8.56492018338411e-20
2.02468073654379e-19
8.90396600300476e-21
5.32823890566371e-19
2.53969739687954e-20
2.77594767847343e-20
2.55557686151618e-20
1.87497014763142e-19
6.65925374109335e-19
5.96535484463061e-20
5.81619221586426e-20
3.34182523118289e-19
2.05800051912444e-19
3.52382886346497e-20
2.09615484099181e-20
1.31617439116609e-19
5.78437682805563e-20
5.12701711089049e-19
2.15729717361605e-19
7.59498730879111e-20
1.2523428048801e-20
2.34098771712054e-19
3.11991235805326e-19
1.11953591908477e-18
2.70553361415915e-19
6.73853309499425e-21
6.75632508366745e-20
1.44650881342499e-19
1.34330702964955e-19
8.90338428128472e-19
7.8584649709541e-20
1.24437679332994e-19
3.72346701770997e-19
7.51785279825881e-21
2.91184438391899e-19
4.80461253200929e-19
1.02135541877924e-19
2.75944334545409e-20
1.8114053263507e-19
2.91551513573589e-19
6.40366642363139e-20
4.22798182703234e-20
1.58624078821067e-20
6.61058462905595e-20
2.37589592617691e-19
6.18251772940805e-21
4.85441777125674e-19
2.24110207323436e-20
5.06578975313655e-19
4.56978697162032e-19
1.35521723753242e-19
3.70129573146015e-19
1.01578498272557e-19
4.69468626637846e-19
4.32092506258847e-20
9.70748298932145e-20
5.56132557370715e-20
1.59661658014647e-19
2.83313249536216e-19
5.67218360237896e-20
3.69076658468417e-20
7.1379573644819e-20
3.18248383331433e-19
2.84034516148276e-20
1.38573561971345e-19
6.78165223456873e-20
4.49705848511052e-19
1.34637808378559e-20
1.64923209350464e-19
4.64669800051292e-19
5.62058679762877e-19
1.12632212164012e-19
1.1939683708704e-20
2.60899624647718e-21
3.36606165420724e-19
3.61882224789416e-19
7.46047492292617e-20
1.26033681307408e-19
4.96602769174291e-20
7.71045033324524e-21
1.15127667462127e-19
5.12682825069838e-19
2.11154379698759e-19
2.39506979805651e-19
3.01432378233672e-19
6.79979788093691e-19
3.82423668086135e-19
1.53018087955903e-20
6.41337326817508e-21
5.54860806142998e-20
1.84218510500021e-19
2.18085066605381e-19
3.86454106002999e-19
1.03681318324026e-19
3.75297160574941e-19
2.49864261247142e-20
5.53213714006562e-19
1.9952057689328e-20
7.90281434474001e-20
7.55928987488802e-20
5.34542697493501e-19
3.30352632608966e-19
1.6139565772242e-19
5.33451766201687e-19
1.55875029926931e-19
3.09587283528636e-19
2.05762897692772e-20
1.26015423729396e-19
7.40506471872188e-20
6.45212804574578e-19
8.00426359402314e-20
2.26802134003608e-19
2.67415755633745e-19
2.37832206878083e-19
1.21613172906588e-19
7.89098152358111e-20
2.20274344837346e-19
2.46266466849134e-19
5.82241975450602e-19
1.80211516438232e-19
7.26079211072063e-20
3.81800661444565e-19
9.37583001160075e-20
3.44378033710439e-19
3.1627995118985e-19
3.12324166453541e-21
1.63322034341437e-19
6.78634689195785e-19
6.3889631543178e-20
3.413024306316e-19
6.25609901863115e-21
4.8471898479978e-20
1.61279554523789e-19
3.25736138153816e-19
3.42440453085177e-19
1.70165359536634e-20
9.74183731325294e-20
3.23780880429397e-20
9.9534224619791e-20
1.13194917110404e-19
1.70132816912808e-19
7.47720024017544e-20
7.51781212688459e-19
5.32986334414986e-20
2.60175680205407e-19
1.04503579909636e-19
1.03996352566442e-18
5.15111024038135e-21
1.62478326198205e-19
7.40663681483799e-20
1.30977393192448e-19
1.11235180452294e-19
1.47106605148106e-19
2.31487423081926e-20
7.14408281404288e-20
1.27345682039909e-19
1.10009055044468e-19
8.00880069412328e-20
3.7835429312504e-19
1.15407045707109e-19
3.21552281006145e-20
5.13327391972903e-20
4.67382478077863e-19
3.42840446059973e-20
5.36348733169217e-19
3.53292034636894e-19
1.15751896158963e-19
9.93673133082063e-20
2.36924236740979e-20
1.789794233018e-19
5.44110892330863e-20
5.98179233378905e-20
2.32075350509347e-19
3.29630999459664e-19
5.23226919674329e-19
7.10979814735086e-20
1.62085607541713e-19
1.84636671904624e-19
1.29029889329654e-19
1.84202659807125e-19
6.58425432225547e-20
1.39258309548034e-19
4.33488501133335e-19
7.07765272003732e-19
1.77762772262094e-19
4.57696198786422e-19
5.58846099910448e-20
4.26641698890864e-19
6.72021649668825e-20
5.0704490296937e-20
1.24005318171858e-19
1.89776745948525e-20
1.04434291574157e-19
2.64975056679668e-19
7.01805023415759e-19
7.16377101664008e-19
2.57450886915597e-19
4.65791806144581e-20
9.47957301577084e-20
1.33316121869937e-19
1.65190502171603e-19
9.43696559652931e-21
8.33591691822263e-20
8.47734590910668e-19
7.41264481612458e-20
5.59581309236521e-19
1.35405864420427e-19
4.15210024831096e-19
5.4956289378278e-20
7.82445153227197e-20
1.567976783239e-20
1.93435777570933e-19
3.03805569468424e-20
1.73638820101193e-19
5.81615591296615e-19
1.47867039551504e-20
5.13155570727418e-19
6.30645806363649e-20
2.66440953630588e-20
2.12447149708721e-20
3.61042735501458e-19
3.58485985339281e-19
5.39055499496105e-21
4.70913821607816e-19
1.56350439216693e-19
1.71444351162316e-19
2.25809336186038e-19
5.2173022222624e-19
2.23014343246184e-19
2.91272746711416e-20
4.94095420757647e-19
3.25822029952678e-19
1.77445736411142e-19
2.37875450514414e-19
1.58767914234673e-19
1.53756097367549e-19
3.67896693781427e-20
3.53764567073319e-19
9.77782256236544e-20
7.65096689340433e-20
2.23973625118117e-19
1.54080987923064e-19
1.86742291759334e-19
2.40315929764432e-19
2.19057156818646e-19
1.71115678046311e-19
1.05242965706291e-19
8.14187729687086e-19
4.38817368679498e-19
8.19095016448364e-20
1.74673235589277e-19
2.9969706830976e-20
1.47708416294321e-19
4.37233573928141e-19
6.64372510167256e-19
1.24748869799637e-19
7.22828034263645e-21
1.25549421046145e-19
5.61098446660895e-20
2.02084282598702e-20
1.78818788204323e-19
3.31312386842232e-19
2.07698734564163e-21
3.48499555348141e-20
4.01955645965891e-20
7.62100587936624e-20
6.80723129800725e-20
4.3517217482394e-19
6.01795662156099e-20
5.92115347779781e-19
3.88445397090378e-20
1.980380709821e-19
3.25711031460072e-19
6.68962562493679e-19
5.85797540825585e-19
3.87392912800002e-19
1.13339592102988e-20
1.37460639404157e-19
7.18088888284555e-20
2.00829410780496e-19
5.25633143287433e-19
2.92107804068483e-19
5.2539410892005e-21
2.46244962240865e-19
3.26061115360045e-19
2.92564849390052e-21
4.01164325753591e-19
1.21573406485609e-19
2.62675267045353e-19
8.80054769193288e-19
5.29702268505819e-19
3.95905320520911e-19
1.23146070329632e-19
2.0864964497174e-19
8.26400858733184e-20
3.40776846325406e-19
5.11105136234217e-19
9.46629456529745e-20
1.8800503395422e-19
1.13756838988162e-19
2.32351422427018e-19
2.27047535124898e-19
3.79507942157902e-19
1.59570426269691e-19
2.03027819437354e-19
2.08483036258252e-19
2.0539512333443e-19
2.54082361505211e-19
5.64269599188357e-21
1.05877011288167e-19
4.70143398366249e-20
3.55320166617599e-19
7.17146659669176e-20
6.19273721422726e-19
1.614948089425e-19
4.28200192953961e-20
1.14113166695929e-19
1.70165867441428e-19
6.68053010222229e-19
3.71215604055382e-20
1.02785536043175e-19
5.2708089561064e-20
3.44095779336743e-20
2.23706836695687e-19
1.03003168771214e-18
5.92990226261999e-20