/*--------------------------------*- C++ -*----------------------------------*\
| =========                 |                                                 |
| \\      /  F ield         | OpenFOAM: The Open Source CFD Toolbox           |
|  \\    /   O peration     | Version:  v1706                                 |
|   \\  /    A nd           | Web:      www.OpenFOAM.com                      |
|    \\/     M anipulation  |                                                 |
\*---------------------------------------------------------------------------*/
FoamFile
{
    version     2.0;
    format      ascii;
    class       labelFieldField;
    location    "0/lagrangian/dsmc";
    object      vibLevel;
}
// * * * * * * * * * * * * * * * * * * * * * * * * * * * * * * * * * * * * * //


100001
(
1(14)
1(9)
1(15)
1(0)
1(2)
1(20)
1(4)
1(9)
1(2)
1(3)
1(4)
1(1)
1(2)
1(2)
1(10)
1(0)
1(3)
1(1)
1(19)
1(0)
1(5)
1(4)
1(2)
1(31)
1(14)
1(4)
1(14)
1(1)
1(3)
1(12)
1(2)
1(5)
1(0)
1(2)
1(3)
1(0)
1(4)
1(1)
1(10)
1(7)
1(2)
1(0)
1(0)
1(17)
1(15)
1(1)
1(7)
1(5)
1(3)
1(1)
1(6)
1(6)
1(14)
1(8)
1(1)
1(28)
1(1)
1(9)
1(0)
1(0)
1(1)
1(3)
1(1)
1(9)
1(12)
1(12)
1(10)
1(4)
1(1)
1(0)
1(13)
1(2)
1(7)
1(1)
1(6)
1(5)
1(0)
1(2)
1(2)
1(4)
1(2)
1(1)
1(0)
1(3)
1(4)
1(2)
1(1)
1(2)
1(2)
1(4)
1(0)
1(6)
1(1)
1(7)
1(3)
1(8)
1(9)
1(3)
1(4)
1(3)
1(5)
1(4)
1(21)
1(8)
1(5)
1(2)
1(9)
1(5)
1(5)
1(8)
1(6)
1(2)
1(0)
1(7)
1(11)
1(2)
1(1)
1(2)
1(6)
1(3)
1(2)
1(15)
1(1)
1(1)
1(3)
1(0)
1(2)
1(2)
1(0)
1(12)
1(1)
1(7)
1(6)
1(3)
1(11)
1(3)
1(1)
1(4)
1(3)
1(1)
1(10)
1(0)
1(0)
1(4)
1(0)
1(18)
1(7)
1(0)
1(11)
1(2)
1(11)
1(7)
1(8)
1(1)
1(1)
1(4)
1(22)
1(0)
1(15)
1(2)
1(5)
1(0)
1(1)
1(7)
1(5)
1(1)
1(1)
1(1)
1(0)
1(0)
1(11)
1(6)
1(6)
1(4)
1(6)
1(0)
1(4)
1(7)
1(2)
1(0)
1(6)
1(7)
1(14)
1(9)
1(7)
1(1)
1(2)
1(7)
1(0)
1(13)
1(4)
1(8)
1(2)
1(3)
1(2)
1(4)
1(5)
1(16)
1(13)
1(2)
1(5)
1(18)
1(10)
1(2)
1(5)
1(0)
1(3)
1(3)
1(15)
1(9)
1(1)
1(0)
1(1)
1(1)
1(1)
1(1)
1(7)
1(6)
1(1)
1(0)
1(0)
1(6)
1(0)
1(10)
1(0)
1(1)
1(2)
1(21)
1(5)
1(1)
1(42)
1(1)
1(6)
1(10)
1(8)
1(13)
1(15)
1(7)
1(3)
1(5)
1(1)
1(2)
1(11)
1(5)
1(3)
1(0)
1(24)
1(18)
1(24)
1(11)
1(1)
1(1)
1(26)
1(30)
1(0)
1(28)
1(3)
1(10)
1(15)
1(3)
1(0)
1(1)
1(53)
1(1)
1(3)
1(8)
1(12)
1(7)
1(1)
1(0)
1(5)
1(11)
1(3)
1(0)
1(10)
1(2)
1(20)
1(1)
1(0)
1(79)
1(2)
1(6)
1(17)
1(3)
1(4)
1(2)
1(1)
1(24)
1(10)
1(0)
1(7)
1(6)
1(2)
1(1)
1(0)
1(25)
1(15)
1(12)
1(17)
1(5)
1(2)
1(0)
1(0)
1(1)
1(0)
1(2)
1(17)
1(0)
1(2)
1(3)
1(4)
1(10)
1(0)
1(1)
1(3)
1(9)
1(0)
1(6)
1(0)
1(3)
1(0)
1(7)
1(1)
1(19)
1(5)
1(0)
1(2)
1(14)
1(2)
1(0)
1(6)
1(8)
1(3)
1(5)
1(2)
1(3)
1(2)
1(0)
1(19)
1(10)
1(21)
1(0)
1(0)
1(5)
1(4)
1(15)
1(3)
1(14)
1(0)
1(19)
1(2)
1(9)
1(3)
1(6)
1(5)
1(4)
1(22)
1(9)
1(0)
1(15)
1(0)
1(8)
1(2)
1(6)
1(26)
1(10)
1(10)
1(5)
1(30)
1(4)
1(2)
1(6)
1(4)
1(0)
1(2)
1(3)
1(8)
1(0)
1(4)
1(0)
1(4)
1(1)
1(0)
1(17)
1(2)
1(0)
1(0)
1(1)
1(3)
1(3)
1(4)
1(2)
1(6)
1(8)
1(4)
1(5)
1(0)
1(13)
1(1)
1(15)
1(0)
1(2)
1(4)
1(1)
1(29)
1(0)
1(4)
1(2)
1(2)
1(7)
1(12)
1(2)
1(0)
1(6)
1(0)
1(0)
1(1)
1(12)
1(11)
1(34)
1(7)
1(15)
1(6)
1(3)
1(1)
1(10)
1(1)
1(4)
1(5)
1(9)
1(8)
1(14)
1(4)
1(4)
1(6)
1(21)
1(4)
1(3)
1(0)
1(1)
1(5)
1(0)
1(14)
1(10)
1(1)
1(0)
1(3)
1(1)
1(3)
1(7)
1(6)
1(0)
1(1)
1(5)
1(1)
1(1)
1(1)
1(14)
1(0)
1(15)
1(7)
1(6)
1(14)
1(23)
1(1)
1(2)
1(3)
1(1)
1(5)
1(10)
1(2)
1(4)
1(3)
1(3)
1(1)
1(0)
1(0)
1(7)
1(0)
1(1)
1(20)
1(8)
1(16)
1(8)
1(4)
1(1)
1(0)
1(1)
1(1)
1(0)
1(3)
1(3)
1(3)
1(15)
1(11)
1(9)
1(3)
1(18)
1(19)
1(2)
1(1)
1(6)
1(2)
1(5)
1(0)
1(29)
1(0)
1(0)
1(3)
1(0)
1(1)
1(2)
1(2)
1(17)
1(1)
1(5)
1(3)
1(11)
1(0)
1(16)
1(1)
1(0)
1(0)
1(4)
1(1)
1(4)
1(0)
1(30)
1(39)
1(1)
1(0)
1(9)
1(7)
1(3)
1(0)
1(4)
1(0)
1(3)
1(5)
1(21)
1(4)
1(5)
1(0)
1(1)
1(3)
1(2)
1(17)
1(2)
1(11)
1(1)
1(13)
1(1)
1(1)
1(7)
1(4)
1(11)
1(1)
1(14)
1(2)
1(6)
1(0)
1(1)
1(6)
1(19)
1(1)
1(4)
1(16)
1(1)
1(0)
1(0)
1(10)
1(4)
1(7)
1(6)
1(23)
1(4)
1(18)
1(20)
1(4)
1(0)
1(2)
1(5)
1(0)
1(3)
1(5)
1(3)
1(0)
1(6)
1(0)
1(10)
1(0)
1(18)
1(3)
1(16)
1(34)
1(11)
1(6)
1(1)
1(14)
1(15)
1(4)
1(3)
1(5)
1(6)
1(4)
1(4)
1(0)
1(7)
1(4)
1(14)
1(6)
1(5)
1(11)
1(0)
1(3)
1(7)
1(16)
1(9)
1(1)
1(4)
1(2)
1(1)
1(2)
1(28)
1(1)
1(12)
1(0)
1(1)
1(6)
1(1)
1(1)
1(10)
1(9)
1(6)
1(26)
1(2)
1(2)
1(3)
1(2)
1(1)
1(1)
1(7)
1(6)
1(15)
1(10)
1(18)
1(5)
1(6)
1(6)
1(2)
1(16)
1(4)
1(5)
1(1)
1(9)
1(0)
1(4)
1(6)
1(25)
1(0)
1(5)
1(2)
1(0)
1(0)
1(3)
1(4)
1(5)
1(2)
1(22)
1(2)
1(36)
1(1)
1(7)
1(12)
1(9)
1(0)
1(8)
1(5)
1(0)
1(7)
1(2)
1(0)
1(5)
1(3)
1(19)
1(3)
1(6)
1(13)
1(2)
1(0)
1(2)
1(0)
1(0)
1(6)
1(9)
1(11)
1(5)
1(0)
1(3)
1(2)
1(2)
1(2)
1(3)
1(6)
1(0)
1(13)
1(2)
1(9)
1(27)
1(3)
1(0)
1(1)
1(0)
1(9)
1(13)
1(5)
1(14)
1(15)
1(1)
1(0)
1(4)
1(4)
1(1)
1(6)
1(1)
1(3)
1(4)
1(2)
1(24)
1(0)
1(6)
1(8)
1(4)
1(1)
1(9)
1(2)
1(8)
1(0)
1(1)
1(10)
1(3)
1(11)
1(2)
1(3)
1(3)
1(8)
1(3)
1(5)
1(6)
1(8)
1(2)
1(1)
1(0)
1(7)
1(1)
1(2)
1(1)
1(1)
1(3)
1(27)
1(12)
1(4)
1(16)
1(3)
1(0)
1(5)
1(11)
1(5)
1(0)
1(1)
1(6)
1(2)
1(2)
1(0)
1(2)
1(2)
1(5)
1(6)
1(2)
1(6)
1(15)
1(9)
1(7)
1(6)
1(4)
1(5)
1(0)
1(5)
1(3)
1(3)
1(1)
1(10)
1(3)
1(7)
1(0)
1(6)
1(2)
1(21)
1(1)
1(10)
1(2)
1(2)
1(4)
1(2)
1(9)
1(3)
1(1)
1(7)
1(3)
1(18)
1(14)
1(2)
1(2)
1(6)
1(18)
1(7)
1(8)
1(19)
1(1)
1(7)
1(4)
1(3)
1(3)
1(4)
1(2)
1(4)
1(6)
1(4)
1(1)
1(7)
1(0)
1(7)
1(5)
1(18)
1(0)
1(14)
1(7)
1(0)
1(25)
1(2)
1(8)
1(7)
1(12)
1(3)
1(0)
1(2)
1(3)
1(20)
1(17)
1(1)
1(3)
1(5)
1(11)
1(9)
1(1)
1(0)
1(8)
1(6)
1(1)
1(5)
1(2)
1(12)
1(0)
1(8)
1(2)
1(3)
1(18)
1(2)
1(16)
1(0)
1(0)
1(2)
1(7)
1(5)
1(2)
1(1)
1(3)
1(14)
1(5)
1(14)
1(3)
1(0)
1(3)
1(17)
1(1)
1(1)
1(6)
1(11)
1(0)
1(4)
1(0)
1(0)
1(7)
1(2)
1(7)
1(0)
1(1)
1(2)
1(9)
1(0)
1(11)
1(2)
1(13)
1(5)
1(0)
1(1)
1(3)
1(19)
1(6)
1(0)
1(12)
1(4)
1(4)
1(14)
1(7)
1(29)
1(2)
1(0)
1(9)
1(6)
1(11)
1(8)
1(11)
1(24)
1(0)
1(1)
1(9)
1(8)
1(20)
1(6)
1(5)
1(3)
1(5)
1(5)
1(3)
1(4)
1(0)
1(6)
1(5)
1(0)
1(5)
1(0)
1(18)
1(0)
1(7)
1(8)
1(2)
1(21)
1(3)
1(0)
1(2)
1(6)
1(4)
1(10)
1(3)
1(4)
1(6)
1(16)
1(4)
1(4)
1(1)
1(13)
1(9)
1(26)
1(8)
1(3)
1(8)
1(3)
1(5)
1(6)
1(17)
1(2)
1(12)
1(5)
1(4)
1(3)
1(11)
1(18)
1(8)
1(17)
1(0)
1(7)
1(4)
1(6)
1(0)
1(5)
1(20)
1(1)
1(12)
1(6)
1(0)
1(18)
1(4)
1(2)
1(17)
1(10)
1(14)
1(0)
1(4)
1(0)
1(4)
1(7)
1(8)
1(20)
1(1)
1(19)
1(8)
1(18)
1(7)
1(1)
1(13)
1(15)
1(0)
1(9)
1(19)
1(3)
1(0)
1(26)
1(6)
1(8)
1(24)
1(7)
1(1)
1(0)
1(20)
1(23)
1(0)
1(21)
1(0)
1(33)
1(9)
1(7)
1(3)
1(0)
1(1)
1(4)
1(32)
1(6)
1(8)
1(11)
1(3)
1(18)
1(5)
1(3)
1(1)
1(17)
1(3)
1(30)
1(2)
1(9)
1(4)
1(3)
1(9)
1(15)
1(2)
1(6)
1(0)
1(11)
1(8)
1(5)
1(6)
1(8)
1(1)
1(2)
1(1)
1(2)
1(8)
1(2)
1(0)
1(9)
1(12)
1(9)
1(6)
1(4)
1(5)
1(28)
1(0)
1(3)
1(0)
1(7)
1(10)
1(3)
1(4)
1(1)
1(16)
1(3)
1(15)
1(26)
1(1)
1(0)
1(18)
1(0)
1(3)
1(2)
1(18)
1(4)
1(1)
1(20)
1(4)
1(6)
1(10)
1(14)
1(1)
1(2)
1(0)
1(9)
1(2)
1(2)
1(3)
1(2)
1(9)
1(10)
1(6)
1(7)
1(3)
1(0)
1(4)
1(1)
1(12)
1(1)
1(0)
1(2)
1(1)
1(6)
1(6)
1(3)
1(11)
1(0)
1(13)
1(0)
1(11)
1(0)
1(0)
1(10)
1(3)
1(10)
1(16)
1(10)
1(6)
1(0)
1(1)
1(10)
1(12)
1(0)
1(11)
1(5)
1(4)
1(15)
1(2)
1(0)
1(3)
1(2)
1(8)
1(0)
1(0)
1(8)
1(8)
1(4)
1(12)
1(16)
1(1)
1(5)
1(5)
1(0)
1(1)
1(7)
1(1)
1(6)
1(21)
1(15)
1(9)
1(4)
1(10)
1(1)
1(12)
1(10)
1(10)
1(4)
1(0)
1(5)
1(5)
1(9)
1(3)
1(6)
1(7)
1(5)
1(19)
1(15)
1(0)
1(1)
1(2)
1(1)
1(7)
1(5)
1(2)
1(3)
1(3)
1(1)
1(6)
1(3)
1(5)
1(1)
1(7)
1(13)
1(5)
1(1)
1(5)
1(4)
1(4)
1(6)
1(7)
1(1)
1(0)
1(16)
1(5)
1(5)
1(16)
1(0)
1(3)
1(3)
1(3)
1(0)
1(4)
1(2)
1(3)
1(0)
1(3)
1(11)
1(8)
1(0)
1(5)
1(1)
1(4)
1(1)
1(14)
1(4)
1(4)
1(0)
1(0)
1(0)
1(0)
1(9)
1(0)
1(2)
1(8)
1(1)
1(0)
1(0)
1(1)
1(4)
1(0)
1(0)
1(6)
1(14)
1(7)
1(0)
1(2)
1(9)
1(0)
1(9)
1(1)
1(5)
1(4)
1(21)
1(1)
1(5)
1(3)
1(4)
1(2)
1(1)
1(1)
1(3)
1(18)
1(2)
1(2)
1(31)
1(4)
1(4)
1(3)
1(0)
1(1)
1(24)
1(1)
1(2)
1(3)
1(6)
1(2)
1(12)
1(10)
1(5)
1(2)
1(2)
1(1)
1(0)
1(2)
1(5)
1(3)
1(0)
1(11)
1(10)
1(11)
1(15)
1(1)
1(4)
1(0)
1(0)
1(6)
1(0)
1(4)
1(9)
1(0)
1(0)
1(0)
1(1)
1(7)
1(4)
1(6)
1(8)
1(1)
1(16)
1(9)
1(9)
1(5)
1(1)
1(4)
1(0)
1(7)
1(11)
1(5)
1(11)
1(1)
1(10)
1(7)
1(4)
1(2)
1(2)
1(5)
1(0)
1(7)
1(11)
1(7)
1(0)
1(6)
1(15)
1(15)
1(1)
1(0)
1(8)
1(0)
1(9)
1(2)
1(8)
1(4)
1(1)
1(0)
1(3)
1(8)
1(0)
1(2)
1(3)
1(0)
1(1)
1(5)
1(1)
1(0)
1(0)
1(10)
1(7)
1(7)
1(15)
1(2)
1(1)
1(2)
1(4)
1(3)
1(8)
1(3)
1(2)
1(0)
1(17)
1(1)
1(4)
1(6)
1(6)
1(10)
1(3)
1(1)
1(12)
1(3)
1(21)
1(13)
1(1)
1(20)
1(4)
1(3)
1(5)
1(0)
1(13)
1(4)
1(5)
1(9)
1(8)
1(1)
1(3)
1(0)
1(6)
1(10)
1(1)
1(29)
1(2)
1(9)
1(3)
1(3)
1(0)
1(6)
1(5)
1(1)
1(5)
1(3)
1(0)
1(2)
1(7)
1(0)
1(5)
1(2)
1(3)
1(4)
1(2)
1(14)
1(8)
1(1)
1(8)
1(6)
1(11)
1(23)
1(3)
1(0)
1(0)
1(9)
1(8)
1(8)
1(4)
1(0)
1(3)
1(7)
1(12)
1(13)
1(9)
1(0)
1(5)
1(4)
1(7)
1(18)
1(11)
1(1)
1(10)
1(39)
1(3)
1(8)
1(31)
1(2)
1(0)
1(2)
1(0)
1(2)
1(5)
1(15)
1(16)
1(18)
1(16)
1(9)
1(2)
1(10)
1(5)
1(5)
1(12)
1(9)
1(8)
1(5)
1(4)
1(0)
1(6)
1(5)
1(4)
1(8)
1(3)
1(13)
1(0)
1(4)
1(3)
1(13)
1(20)
1(0)
1(6)
1(12)
1(17)
1(14)
1(17)
1(3)
1(8)
1(11)
1(2)
1(12)
1(2)
1(0)
1(1)
1(2)
1(0)
1(4)
1(2)
1(13)
1(11)
1(19)
1(2)
1(9)
1(1)
1(13)
1(1)
1(32)
1(1)
1(5)
1(14)
1(4)
1(2)
1(1)
1(4)
1(6)
1(2)
1(8)
1(2)
1(3)
1(5)
1(9)
1(11)
1(2)
1(6)
1(3)
1(6)
1(0)
1(4)
1(1)
1(1)
1(1)
1(19)
1(3)
1(52)
1(6)
1(5)
1(8)
1(4)
1(8)
1(19)
1(2)
1(2)
1(0)
1(14)
1(6)
1(1)
1(0)
1(5)
1(6)
1(3)
1(6)
1(0)
1(3)
1(2)
1(6)
1(8)
1(1)
1(7)
1(8)
1(6)
1(15)
1(10)
1(18)
1(3)
1(3)
1(2)
1(3)
1(0)
1(7)
1(6)
1(8)
1(13)
1(6)
1(10)
1(7)
1(0)
1(0)
1(14)
1(1)
1(5)
1(7)
1(2)
1(10)
1(2)
1(5)
1(6)
1(10)
1(0)
1(4)
1(7)
1(1)
1(7)
1(0)
1(6)
1(1)
1(13)
1(3)
1(9)
1(13)
1(9)
1(4)
1(20)
1(14)
1(12)
1(2)
1(7)
1(1)
1(6)
1(10)
1(0)
1(14)
1(7)
1(6)
1(3)
1(10)
1(13)
1(1)
1(2)
1(9)
1(5)
1(6)
1(4)
1(7)
1(3)
1(0)
1(9)
1(6)
1(4)
1(1)
1(15)
1(11)
1(0)
1(6)
1(6)
1(0)
1(8)
1(1)
1(2)
1(1)
1(1)
1(0)
1(4)
1(4)
1(1)
1(8)
1(2)
1(0)
1(16)
1(0)
1(5)
1(17)
1(6)
1(15)
1(2)
1(7)
1(15)
1(2)
1(3)
1(7)
1(7)
1(10)
1(0)
1(2)
1(2)
1(7)
1(11)
1(9)
1(2)
1(1)
1(6)
1(3)
1(5)
1(9)
1(9)
1(10)
1(18)
1(3)
1(1)
1(0)
1(1)
1(0)
1(0)
1(34)
1(2)
1(2)
1(12)
1(4)
1(2)
1(4)
1(4)
1(18)
1(1)
1(35)
1(5)
1(16)
1(1)
1(16)
1(12)
1(2)
1(9)
1(15)
1(4)
1(0)
1(2)
1(4)
1(19)
1(1)
1(2)
1(4)
1(5)
1(13)
1(4)
1(0)
1(5)
1(2)
1(2)
1(0)
1(3)
1(4)
1(3)
1(24)
1(1)
1(7)
1(0)
1(6)
1(3)
1(11)
1(1)
1(8)
1(0)
1(3)
1(23)
1(1)
1(13)
1(6)
1(4)
1(4)
1(1)
1(0)
1(1)
1(2)
1(6)
1(3)
1(1)
1(10)
1(18)
1(3)
1(3)
1(17)
1(13)
1(5)
1(4)
1(7)
1(7)
1(8)
1(6)
1(32)
1(6)
1(7)
1(3)
1(15)
1(6)
1(12)
1(6)
1(13)
1(6)
1(5)
1(0)
1(0)
1(4)
1(8)
1(4)
1(1)
1(1)
1(1)
1(2)
1(1)
1(3)
1(6)
1(3)
1(1)
1(9)
1(0)
1(1)
1(15)
1(12)
1(10)
1(1)
1(1)
1(9)
1(13)
1(3)
1(3)
1(8)
1(9)
1(0)
1(0)
1(13)
1(3)
1(7)
1(3)
1(1)
1(9)
1(22)
1(0)
1(14)
1(0)
1(2)
1(24)
1(6)
1(12)
1(10)
1(0)
1(2)
1(2)
1(3)
1(12)
1(16)
1(6)
1(3)
1(1)
1(18)
1(3)
1(4)
1(19)
1(2)
1(28)
1(1)
1(7)
1(4)
1(13)
1(8)
1(0)
1(2)
1(12)
1(0)
1(1)
1(1)
1(9)
1(5)
1(0)
1(7)
1(13)
1(1)
1(2)
1(11)
1(1)
1(0)
1(21)
1(0)
1(5)
1(3)
1(2)
1(0)
1(4)
1(9)
1(22)
1(5)
1(0)
1(0)
1(3)
1(12)
1(8)
1(16)
1(0)
1(23)
1(3)
1(11)
1(14)
1(5)
1(2)
1(1)
1(1)
1(2)
1(1)
1(7)
1(14)
1(5)
1(4)
1(3)
1(8)
1(1)
1(5)
1(7)
1(15)
1(2)
1(0)
1(5)
1(4)
1(3)
1(0)
1(1)
1(2)
1(4)
1(2)
1(2)
1(3)
1(3)
1(2)
1(11)
1(10)
1(22)
1(5)
1(3)
1(7)
1(18)
1(1)
1(1)
1(9)
1(14)
1(7)
1(12)
1(10)
1(4)
1(6)
1(1)
1(13)
1(5)
1(5)
1(18)
1(5)
1(25)
1(1)
1(13)
1(5)
1(5)
1(9)
1(5)
1(3)
1(1)
1(0)
1(2)
1(32)
1(8)
1(6)
1(5)
1(3)
1(8)
1(1)
1(4)
1(0)
1(12)
1(1)
1(10)
1(3)
1(11)
1(8)
1(5)
1(20)
1(2)
1(5)
1(11)
1(0)
1(2)
1(4)
1(19)
1(5)
1(1)
1(1)
1(2)
1(3)
1(16)
1(4)
1(4)
1(3)
1(5)
1(5)
1(3)
1(1)
1(0)
1(2)
1(7)
1(0)
1(11)
1(8)
1(13)
1(1)
1(3)
1(2)
1(0)
1(3)
1(28)
1(4)
1(8)
1(9)
1(8)
1(4)
1(6)
1(31)
1(1)
1(4)
1(3)
1(4)
1(9)
1(13)
1(8)
1(18)
1(0)
1(19)
1(1)
1(10)
1(2)
1(14)
1(0)
1(0)
1(5)
1(1)
1(10)
1(12)
1(0)
1(3)
1(5)
1(4)
1(2)
1(15)
1(2)
1(15)
1(21)
1(0)
1(7)
1(5)
1(5)
1(5)
1(5)
1(2)
1(1)
1(2)
1(2)
1(0)
1(7)
1(1)
1(11)
1(4)
1(3)
1(29)
1(3)
1(6)
1(3)
1(0)
1(19)
1(1)
1(4)
1(0)
1(5)
1(4)
1(2)
1(8)
1(5)
1(0)
1(5)
1(8)
1(14)
1(9)
1(1)
1(2)
1(6)
1(3)
1(26)
1(1)
1(0)
1(1)
1(4)
1(13)
1(7)
1(1)
1(4)
1(2)
1(0)
1(4)
1(7)
1(2)
1(1)
1(12)
1(2)
1(2)
1(9)
1(4)
1(6)
1(0)
1(2)
1(4)
1(12)
1(8)
1(1)
1(9)
1(16)
1(7)
1(2)
1(5)
1(10)
1(14)
1(16)
1(0)
1(8)
1(6)
1(6)
1(1)
1(13)
1(0)
1(4)
1(3)
1(2)
1(5)
1(0)
1(4)
1(13)
1(1)
1(16)
1(2)
1(1)
1(7)
1(2)
1(8)
1(12)
1(0)
1(4)
1(8)
1(1)
1(10)
1(10)
1(3)
1(11)
1(11)
1(0)
1(11)
1(5)
1(2)
1(4)
1(4)
1(7)
1(0)
1(5)
1(1)
1(2)
1(10)
1(1)
1(7)
1(4)
1(4)
1(6)
1(4)
1(7)
1(7)
1(7)
1(7)
1(1)
1(5)
1(14)
1(7)
1(3)
1(3)
1(2)
1(6)
1(2)
1(8)
1(16)
1(6)
1(4)
1(4)
1(12)
1(1)
1(1)
1(0)
1(1)
1(1)
1(7)
1(4)
1(24)
1(0)
1(29)
1(18)
1(8)
1(3)
1(19)
1(7)
1(1)
1(9)
1(11)
1(19)
1(12)
1(0)
1(4)
1(6)
1(2)
1(1)
1(14)
1(6)
1(1)
1(7)
1(4)
1(14)
1(13)
1(5)
1(2)
1(10)
1(0)
1(8)
1(2)
1(0)
1(11)
1(3)
1(5)
1(7)
1(8)
1(0)
1(0)
1(9)
1(10)
1(1)
1(1)
1(20)
1(2)
1(3)
1(11)
1(2)
1(5)
1(1)
1(15)
1(0)
1(11)
1(3)
1(9)
1(3)
1(1)
1(5)
1(17)
1(8)
1(7)
1(3)
1(1)
1(10)
1(8)
1(16)
1(10)
1(20)
1(3)
1(0)
1(3)
1(12)
1(1)
1(1)
1(7)
1(6)
1(34)
1(5)
1(4)
1(2)
1(3)
1(22)
1(3)
1(10)
1(7)
1(0)
1(14)
1(1)
1(6)
1(2)
1(0)
1(1)
1(0)
1(0)
1(1)
1(0)
1(4)
1(17)
1(37)
1(16)
1(8)
1(3)
1(2)
1(17)
1(6)
1(0)
1(1)
1(3)
1(3)
1(11)
1(13)
1(3)
1(9)
1(0)
1(10)
1(1)
1(14)
1(12)
1(8)
1(5)
1(14)
1(8)
1(1)
1(2)
1(0)
1(32)
1(14)
1(0)
1(3)
1(16)
1(15)
1(7)
1(1)
1(0)
1(1)
1(13)
1(10)
1(8)
1(6)
1(0)
1(4)
1(2)
1(5)
1(0)
1(4)
1(4)
1(0)
1(2)
1(5)
1(9)
1(0)
1(10)
1(4)
1(16)
1(12)
1(4)
1(5)
1(11)
1(7)
1(5)
1(0)
1(4)
1(1)
1(9)
1(14)
1(6)
1(2)
1(13)
1(0)
1(3)
1(3)
1(2)
1(19)
1(1)
1(2)
1(5)
1(5)
1(0)
1(20)
1(0)
1(12)
1(0)
1(0)
1(2)
1(3)
1(8)
1(0)
1(0)
1(5)
1(4)
1(0)
1(11)
1(6)
1(0)
1(1)
1(6)
1(0)
1(2)
1(7)
1(8)
1(0)
1(4)
1(18)
1(5)
1(3)
1(9)
1(7)
1(7)
1(3)
1(0)
1(8)
1(3)
1(4)
1(17)
1(19)
1(8)
1(4)
1(10)
1(0)
1(5)
1(5)
1(1)
1(7)
1(6)
1(4)
1(6)
1(1)
1(3)
1(0)
1(2)
1(3)
1(2)
1(5)
1(16)
1(0)
1(2)
1(7)
1(23)
1(2)
1(20)
1(3)
1(12)
1(4)
1(12)
1(3)
1(1)
1(15)
1(7)
1(3)
1(12)
1(13)
1(7)
1(5)
1(0)
1(0)
1(6)
1(10)
1(0)
1(10)
1(2)
1(1)
1(1)
1(2)
1(5)
1(13)
1(0)
1(5)
1(3)
1(0)
1(1)
1(2)
1(0)
1(0)
1(4)
1(3)
1(27)
1(7)
1(5)
1(5)
1(4)
1(4)
1(0)
1(7)
1(28)
1(0)
1(3)
1(1)
1(1)
1(5)
1(17)
1(13)
1(6)
1(14)
1(12)
1(0)
1(0)
1(2)
1(2)
1(22)
1(5)
1(3)
1(2)
1(2)
1(2)
1(18)
1(0)
1(13)
1(1)
1(3)
1(10)
1(1)
1(6)
1(2)
1(18)
1(17)
1(7)
1(13)
1(0)
1(3)
1(2)
1(1)
1(1)
1(2)
1(3)
1(7)
1(0)
1(0)
1(8)
1(0)
1(8)
1(3)
1(6)
1(2)
1(2)
1(2)
1(5)
1(2)
1(6)
1(11)
1(12)
1(0)
1(4)
1(0)
1(2)
1(11)
1(15)
1(20)
1(3)
1(2)
1(0)
1(12)
1(8)
1(6)
1(3)
1(23)
1(1)
1(1)
1(4)
1(1)
1(5)
1(5)
1(0)
1(11)
1(10)
1(12)
1(1)
1(28)
1(0)
1(25)
1(11)
1(12)
1(9)
1(2)
1(0)
1(0)
1(2)
1(5)
1(7)
1(0)
1(2)
1(0)
1(3)
1(2)
1(12)
1(7)
1(0)
1(1)
1(7)
1(1)
1(5)
1(1)
1(6)
1(1)
1(20)
1(0)
1(8)
1(8)
1(1)
1(0)
1(7)
1(0)
1(2)
1(1)
1(1)
1(2)
1(3)
1(46)
1(12)
1(3)
1(6)
1(5)
1(18)
1(9)
1(9)
1(7)
1(4)
1(0)
1(22)
1(3)
1(1)
1(9)
1(4)
1(1)
1(6)
1(1)
1(0)
1(16)
1(4)
1(27)
1(10)
1(2)
1(0)
1(5)
1(4)
1(15)
1(0)
1(7)
1(1)
1(22)
1(1)
1(9)
1(15)
1(1)
1(1)
1(1)
1(3)
1(15)
1(0)
1(11)
1(0)
1(10)
1(11)
1(4)
1(0)
1(3)
1(0)
1(7)
1(5)
1(2)
1(14)
1(5)
1(12)
1(30)
1(1)
1(15)
1(7)
1(2)
1(0)
1(3)
1(0)
1(7)
1(1)
1(0)
1(6)
1(4)
1(14)
1(17)
1(17)
1(9)
1(0)
1(0)
1(20)
1(11)
1(7)
1(25)
1(2)
1(1)
1(16)
1(0)
1(0)
1(0)
1(3)
1(3)
1(6)
1(2)
1(22)
1(1)
1(10)
1(5)
1(22)
1(10)
1(3)
1(3)
1(1)
1(4)
1(4)
1(4)
1(2)
1(1)
1(0)
1(0)
1(1)
1(16)
1(9)
1(13)
1(3)
1(2)
1(2)
1(8)
1(3)
1(0)
1(3)
1(10)
1(13)
1(7)
1(5)
1(12)
1(4)
1(14)
1(3)
1(3)
1(26)
1(5)
1(0)
1(0)
1(2)
1(4)
1(0)
1(6)
1(5)
1(11)
1(25)
1(4)
1(1)
1(0)
1(2)
1(11)
1(3)
1(2)
1(0)
1(7)
1(2)
1(5)
1(1)
1(1)
1(5)
1(4)
1(16)
1(2)
1(14)
1(0)
1(24)
1(21)
1(5)
1(0)
1(0)
1(5)
1(3)
1(11)
1(8)
1(23)
1(11)
1(2)
1(5)
1(4)
1(6)
1(1)
1(3)
1(0)
1(0)
1(8)
1(9)
1(4)
1(6)
1(4)
1(12)
1(0)
1(1)
1(6)
1(28)
1(14)
1(3)
1(4)
1(6)
1(1)
1(2)
1(11)
1(9)
1(0)
1(11)
1(8)
1(2)
1(5)
1(5)
1(2)
1(24)
1(8)
1(5)
1(2)
1(12)
1(4)
1(9)
1(25)
1(14)
1(15)
1(0)
1(6)
1(8)
1(0)
1(7)
1(3)
1(6)
1(0)
1(4)
1(1)
1(1)
1(20)
1(4)
1(2)
1(2)
1(8)
1(10)
1(10)
1(1)
1(3)
1(3)
1(0)
1(0)
1(3)
1(0)
1(8)
1(7)
1(0)
1(0)
1(2)
1(22)
1(14)
1(1)
1(0)
1(2)
1(6)
1(10)
1(8)
1(2)
1(10)
1(4)
1(4)
1(32)
1(11)
1(10)
1(5)
1(0)
1(3)
1(0)
1(7)
1(0)
1(2)
1(3)
1(0)
1(8)
1(7)
1(1)
1(3)
1(16)
1(3)
1(9)
1(2)
1(2)
1(2)
1(2)
1(5)
1(1)
1(4)
1(15)
1(4)
1(3)
1(14)
1(18)
1(6)
1(4)
1(6)
1(7)
1(7)
1(0)
1(1)
1(5)
1(11)
1(4)
1(1)
1(0)
1(3)
1(23)
1(5)
1(0)
1(7)
1(7)
1(1)
1(1)
1(0)
1(15)
1(3)
1(0)
1(38)
1(23)
1(2)
1(12)
1(0)
1(37)
1(6)
1(0)
1(10)
1(1)
1(11)
1(4)
1(6)
1(0)
1(1)
1(11)
1(1)
1(1)
1(7)
1(6)
1(11)
1(2)
1(3)
1(1)
1(13)
1(7)
1(0)
1(1)
1(7)
1(18)
1(10)
1(0)
1(2)
1(3)
1(2)
1(0)
1(0)
1(0)
1(6)
1(9)
1(16)
1(1)
1(1)
1(2)
1(13)
1(6)
1(1)
1(1)
1(5)
1(8)
1(5)
1(7)
1(3)
1(17)
1(13)
1(0)
1(1)
1(5)
1(4)
1(16)
1(0)
1(0)
1(15)
1(10)
1(10)
1(2)
1(1)
1(11)
1(3)
1(19)
1(4)
1(0)
1(0)
1(2)
1(27)
1(15)
1(16)
1(4)
1(20)
1(12)
1(0)
1(4)
1(5)
1(5)
1(5)
1(23)
1(2)
1(4)
1(3)
1(4)
1(0)
1(15)
1(3)
1(4)
1(11)
1(1)
1(19)
1(4)
1(1)
1(8)
1(31)
1(3)
1(11)
1(12)
1(4)
1(6)
1(6)
1(34)
1(4)
1(1)
1(4)
1(7)
1(0)
1(10)
1(3)
1(6)
1(8)
1(31)
1(5)
1(4)
1(1)
1(2)
1(0)
1(6)
1(15)
1(0)
1(1)
1(5)
1(14)
1(1)
1(4)
1(16)
1(4)
1(9)
1(3)
1(19)
1(3)
1(2)
1(5)
1(11)
1(3)
1(7)
1(3)
1(35)
1(9)
1(9)
1(1)
1(5)
1(4)
1(0)
1(0)
1(3)
1(1)
1(8)
1(0)
1(0)
1(1)
1(0)
1(5)
1(3)
1(1)
1(2)
1(3)
1(11)
1(2)
1(0)
1(1)
1(16)
1(13)
1(2)
1(3)
1(4)
1(4)
1(2)
1(7)
1(0)
1(11)
1(7)
1(11)
1(8)
1(4)
1(5)
1(0)
1(1)
1(1)
1(6)
1(6)
1(6)
1(3)
1(3)
1(3)
1(4)
1(23)
1(9)
1(10)
1(8)
1(7)
1(2)
1(9)
1(0)
1(43)
1(12)
1(2)
1(7)
1(3)
1(4)
1(1)
1(30)
1(0)
1(2)
1(4)
1(0)
1(8)
1(19)
1(15)
1(18)
1(0)
1(12)
1(20)
1(18)
1(2)
1(1)
1(23)
1(2)
1(0)
1(3)
1(6)
1(5)
1(9)
1(8)
1(0)
1(13)
1(3)
1(6)
1(6)
1(2)
1(4)
1(0)
1(5)
1(0)
1(6)
1(12)
1(26)
1(2)
1(5)
1(3)
1(0)
1(1)
1(6)
1(26)
1(1)
1(16)
1(17)
1(6)
1(2)
1(6)
1(8)
1(1)
1(2)
1(24)
1(3)
1(2)
1(4)
1(18)
1(4)
1(2)
1(2)
1(18)
1(0)
1(12)
1(0)
1(4)
1(0)
1(1)
1(6)
1(4)
1(7)
1(1)
1(8)
1(0)
1(16)
1(11)
1(2)
1(13)
1(1)
1(3)
1(2)
1(0)
1(8)
1(6)
1(6)
1(17)
1(1)
1(10)
1(0)
1(4)
1(0)
1(0)
1(6)
1(14)
1(12)
1(0)
1(1)
1(7)
1(15)
1(16)
1(13)
1(30)
1(8)
1(3)
1(12)
1(14)
1(4)
1(3)
1(5)
1(2)
1(8)
1(0)
1(10)
1(5)
1(7)
1(18)
1(2)
1(12)
1(6)
1(46)
1(5)
1(5)
1(13)
1(18)
1(22)
1(6)
1(9)
1(2)
1(0)
1(7)
1(3)
1(0)
1(4)
1(2)
1(2)
1(0)
1(9)
1(14)
1(0)
1(0)
1(2)
1(35)
1(3)
1(5)
1(4)
1(0)
1(3)
1(18)
1(8)
1(22)
1(2)
1(2)
1(6)
1(6)
1(14)
1(18)
1(11)
1(0)
1(6)
1(4)
1(5)
1(0)
1(0)
1(8)
1(9)
1(24)
1(11)
1(1)
1(1)
1(4)
1(0)
1(10)
1(1)
1(0)
1(5)
1(2)
1(4)
1(3)
1(17)
1(0)
1(3)
1(11)
1(0)
1(0)
1(0)
1(6)
1(2)
1(0)
1(12)
1(31)
1(6)
1(7)
1(5)
1(13)
1(6)
1(12)
1(1)
1(22)
1(0)
1(2)
1(4)
1(8)
1(2)
1(3)
1(0)
1(9)
1(12)
1(0)
1(19)
1(9)
1(3)
1(10)
1(0)
1(6)
1(18)
1(9)
1(8)
1(3)
1(4)
1(7)
1(0)
1(16)
1(5)
1(3)
1(3)
1(11)
1(6)
1(2)
1(3)
1(10)
1(13)
1(5)
1(16)
1(1)
1(9)
1(14)
1(4)
1(2)
1(8)
1(0)
1(4)
1(2)
1(8)
1(19)
1(1)
1(10)
1(2)
1(4)
1(4)
1(1)
1(6)
1(27)
1(3)
1(2)
1(1)
1(27)
1(3)
1(3)
1(22)
1(2)
1(17)
1(3)
1(0)
1(9)
1(11)
1(8)
1(0)
1(10)
1(11)
1(12)
1(1)
1(10)
1(6)
1(8)
1(0)
1(23)
1(15)
1(9)
1(3)
1(1)
1(3)
1(6)
1(10)
1(25)
1(6)
1(6)
1(1)
1(0)
1(2)
1(5)
1(3)
1(4)
1(5)
1(6)
1(0)
1(2)
1(3)
1(5)
1(3)
1(0)
1(0)
1(1)
1(1)
1(0)
1(1)
1(7)
1(1)
1(12)
1(1)
1(8)
1(3)
1(8)
1(0)
1(6)
1(0)
1(0)
1(2)
1(2)
1(8)
1(8)
1(2)
1(3)
1(1)
1(4)
1(4)
1(6)
1(3)
1(6)
1(9)
1(1)
1(19)
1(8)
1(4)
1(13)
1(3)
1(2)
1(8)
1(1)
1(7)
1(5)
1(0)
1(5)
1(1)
1(1)
1(3)
1(12)
1(1)
1(3)
1(3)
1(15)
1(5)
1(1)
1(15)
1(7)
1(3)
1(1)
1(5)
1(18)
1(4)
1(3)
1(6)
1(5)
1(8)
1(1)
1(2)
1(9)
1(9)
1(0)
1(3)
1(4)
1(0)
1(18)
1(0)
1(0)
1(16)
1(11)
1(3)
1(2)
1(3)
1(9)
1(3)
1(24)
1(2)
1(38)
1(2)
1(19)
1(4)
1(3)
1(1)
1(1)
1(0)
1(0)
1(6)
1(0)
1(25)
1(20)
1(0)
1(1)
1(5)
1(12)
1(12)
1(1)
1(2)
1(8)
1(11)
1(4)
1(14)
1(0)
1(5)
1(8)
1(3)
1(0)
1(13)
1(15)
1(5)
1(0)
1(2)
1(2)
1(3)
1(6)
1(0)
1(1)
1(1)
1(1)
1(4)
1(2)
1(14)
1(14)
1(7)
1(0)
1(2)
1(1)
1(1)
1(3)
1(1)
1(0)
1(19)
1(1)
1(0)
1(13)
1(1)
1(10)
1(4)
1(0)
1(1)
1(0)
1(5)
1(0)
1(16)
1(6)
1(3)
1(3)
1(0)
1(0)
1(17)
1(11)
1(2)
1(0)
1(9)
1(20)
1(3)
1(0)
1(1)
1(4)
1(1)
1(6)
1(13)
1(13)
1(2)
1(20)
1(0)
1(26)
1(21)
1(15)
1(6)
1(4)
1(0)
1(10)
1(0)
1(3)
1(1)
1(25)
1(4)
1(4)
1(3)
1(9)
1(8)
1(2)
1(0)
1(4)
1(1)
1(7)
1(4)
1(1)
1(2)
1(29)
1(12)
1(6)
1(5)
1(0)
1(4)
1(4)
1(1)
1(9)
1(4)
1(2)
1(2)
1(2)
1(4)
1(5)
1(9)
1(11)
1(8)
1(6)
1(2)
1(1)
1(1)
1(20)
1(2)
1(1)
1(1)
1(10)
1(3)
1(1)
1(4)
1(5)
1(10)
1(20)
1(15)
1(6)
1(2)
1(5)
1(2)
1(5)
1(8)
1(4)
1(13)
1(0)
1(4)
1(14)
1(2)
1(5)
1(13)
1(2)
1(5)
1(9)
1(12)
1(9)
1(1)
1(3)
1(5)
1(4)
1(15)
1(0)
1(4)
1(1)
1(10)
1(9)
1(12)
1(12)
1(14)
1(0)
1(4)
1(2)
1(3)
1(11)
1(0)
1(9)
1(2)
1(16)
1(5)
1(11)
1(2)
1(3)
1(0)
1(10)
1(12)
1(1)
1(1)
1(3)
1(2)
1(17)
1(2)
1(3)
1(4)
1(6)
1(2)
1(13)
1(24)
1(1)
1(1)
1(5)
1(14)
1(26)
1(9)
1(3)
1(4)
1(2)
1(0)
1(16)
1(4)
1(5)
1(3)
1(1)
1(11)
1(13)
1(2)
1(26)
1(5)
1(1)
1(0)
1(0)
1(5)
1(1)
1(6)
1(2)
1(2)
1(8)
1(10)
1(4)
1(3)
1(12)
1(1)
1(14)
1(12)
1(4)
1(4)
1(8)
1(9)
1(3)
1(4)
1(4)
1(13)
1(6)
1(10)
1(12)
1(37)
1(15)
1(9)
1(8)
1(7)
1(5)
1(12)
1(6)
1(0)
1(4)
1(0)
1(7)
1(48)
1(3)
1(3)
1(14)
1(11)
1(0)
1(17)
1(1)
1(3)
1(0)
1(3)
1(3)
1(9)
1(5)
1(4)
1(9)
1(2)
1(4)
1(0)
1(0)
1(10)
1(12)
1(10)
1(19)
1(1)
1(9)
1(4)
1(3)
1(19)
1(1)
1(5)
1(15)
1(6)
1(13)
1(4)
1(3)
1(0)
1(4)
1(1)
1(2)
1(2)
1(1)
1(10)
1(14)
1(9)
1(3)
1(7)
1(0)
1(0)
1(0)
1(10)
1(1)
1(0)
1(1)
1(11)
1(11)
1(10)
1(13)
1(7)
1(1)
1(16)
1(6)
1(6)
1(1)
1(9)
1(17)
1(23)
1(8)
1(0)
1(5)
1(6)
1(6)
1(9)
1(2)
1(5)
1(0)
1(3)
1(10)
1(2)
1(10)
1(8)
1(10)
1(14)
1(0)
1(0)
1(6)
1(4)
1(7)
1(5)
1(1)
1(2)
1(4)
1(3)
1(2)
1(8)
1(1)
1(0)
1(7)
1(6)
1(2)
1(19)
1(7)
1(8)
1(0)
1(33)
1(7)
1(14)
1(2)
1(0)
1(6)
1(6)
1(4)
1(16)
1(2)
1(3)
1(1)
1(12)
1(4)
1(13)
1(1)
1(1)
1(5)
1(2)
1(10)
1(2)
1(31)
1(11)
1(0)
1(10)
1(5)
1(3)
1(4)
1(4)
1(10)
1(21)
1(4)
1(3)
1(2)
1(1)
1(2)
1(0)
1(2)
1(11)
1(13)
1(0)
1(11)
1(10)
1(2)
1(9)
1(5)
1(13)
1(5)
1(2)
1(0)
1(3)
1(0)
1(0)
1(9)
1(1)
1(1)
1(6)
1(17)
1(1)
1(1)
1(6)
1(1)
1(1)
1(3)
1(3)
1(2)
1(8)
1(0)
1(5)
1(12)
1(2)
1(1)
1(14)
1(3)
1(15)
1(20)
1(1)
1(5)
1(13)
1(7)
1(9)
1(20)
1(9)
1(3)
1(24)
1(3)
1(4)
1(0)
1(1)
1(10)
1(2)
1(16)
1(13)
1(8)
1(2)
1(0)
1(7)
1(23)
1(7)
1(3)
1(23)
1(1)
1(11)
1(9)
1(2)
1(11)
1(7)
1(8)
1(2)
1(3)
1(2)
1(11)
1(7)
1(5)
1(5)
1(2)
1(5)
1(2)
1(27)
1(0)
1(0)
1(5)
1(5)
1(1)
1(4)
1(0)
1(0)
1(0)
1(2)
1(6)
1(15)
1(6)
1(2)
1(5)
1(1)
1(3)
1(11)
1(28)
1(8)
1(46)
1(6)
1(2)
1(2)
1(6)
1(5)
1(15)
1(2)
1(7)
1(10)
1(5)
1(3)
1(5)
1(3)
1(6)
1(13)
1(13)
1(16)
1(2)
1(1)
1(20)
1(6)
1(1)
1(16)
1(15)
1(0)
1(15)
1(5)
1(6)
1(1)
1(7)
1(10)
1(0)
1(5)
1(14)
1(10)
1(2)
1(2)
1(20)
1(15)
1(9)
1(12)
1(4)
1(6)
1(8)
1(12)
1(0)
1(19)
1(0)
1(2)
1(2)
1(0)
1(3)
1(7)
1(1)
1(1)
1(1)
1(4)
1(7)
1(7)
1(18)
1(5)
1(4)
1(0)
1(20)
1(3)
1(0)
1(9)
1(2)
1(3)
1(1)
1(21)
1(3)
1(0)
1(2)
1(6)
1(5)
1(8)
1(2)
1(1)
1(4)
1(5)
1(13)
1(6)
1(0)
1(16)
1(0)
1(10)
1(14)
1(1)
1(3)
1(1)
1(13)
1(37)
1(3)
1(2)
1(12)
1(11)
1(6)
1(4)
1(7)
1(6)
1(8)
1(7)
1(2)
1(0)
1(5)
1(4)
1(8)
1(5)
1(1)
1(0)
1(7)
1(1)
1(8)
1(0)
1(8)
1(1)
1(6)
1(14)
1(1)
1(20)
1(4)
1(7)
1(1)
1(13)
1(9)
1(0)
1(3)
1(5)
1(5)
1(1)
1(3)
1(21)
1(3)
1(2)
1(4)
1(1)
1(6)
1(3)
1(4)
1(0)
1(4)
1(26)
1(1)
1(1)
1(1)
1(16)
1(4)
1(5)
1(20)
1(1)
1(1)
1(0)
1(13)
1(0)
1(13)
1(0)
1(13)
1(3)
1(13)
1(14)
1(0)
1(12)
1(5)
1(10)
1(3)
1(3)
1(6)
1(6)
1(7)
1(0)
1(13)
1(2)
1(5)
1(4)
1(7)
1(8)
1(7)
1(0)
1(1)
1(7)
1(12)
1(1)
1(4)
1(1)
1(6)
1(17)
1(2)
1(11)
1(3)
1(3)
1(7)
1(16)
1(0)
1(7)
1(4)
1(9)
1(5)
1(0)
1(0)
1(27)
1(12)
1(5)
1(0)
1(1)
1(2)
1(0)
1(1)
1(4)
1(7)
1(17)
1(3)
1(0)
1(6)
1(6)
1(6)
1(5)
1(0)
1(17)
1(0)
1(5)
1(24)
1(15)
1(2)
1(1)
1(9)
1(2)
1(0)
1(8)
1(0)
1(0)
1(7)
1(3)
1(5)
1(11)
1(10)
1(0)
1(2)
1(5)
1(3)
1(0)
1(3)
1(2)
1(4)
1(7)
1(1)
1(3)
1(0)
1(2)
1(11)
1(2)
1(1)
1(8)
1(11)
1(0)
1(18)
1(3)
1(28)
1(3)
1(5)
1(1)
1(19)
1(4)
1(3)
1(18)
1(3)
1(1)
1(10)
1(10)
1(9)
1(7)
1(0)
1(4)
1(6)
1(0)
1(0)
1(0)
1(25)
1(3)
1(0)
1(0)
1(22)
1(7)
1(0)
1(2)
1(12)
1(7)
1(7)
1(7)
1(2)
1(1)
1(4)
1(8)
1(4)
1(8)
1(4)
1(5)
1(4)
1(8)
1(5)
1(11)
1(7)
1(15)
1(0)
1(3)
1(0)
1(2)
1(7)
1(0)
1(2)
1(3)
1(4)
1(2)
1(10)
1(15)
1(17)
1(25)
1(6)
1(6)
1(1)
1(3)
1(1)
1(10)
1(4)
1(0)
1(5)
1(5)
1(12)
1(1)
1(13)
1(4)
1(20)
1(6)
1(0)
1(5)
1(2)
1(2)
1(14)
1(2)
1(1)
1(2)
1(7)
1(3)
1(3)
1(16)
1(37)
1(1)
1(0)
1(0)
1(5)
1(19)
1(1)
1(0)
1(3)
1(2)
1(3)
1(7)
1(9)
1(19)
1(11)
1(0)
1(0)
1(8)
1(2)
1(8)
1(6)
1(22)
1(22)
1(0)
1(0)
1(4)
1(3)
1(0)
1(11)
1(10)
1(8)
1(2)
1(3)
1(1)
1(0)
1(9)
1(5)
1(0)
1(3)
1(2)
1(7)
1(11)
1(6)
1(15)
1(1)
1(2)
1(1)
1(3)
1(4)
1(1)
1(7)
1(1)
1(16)
1(0)
1(0)
1(30)
1(16)
1(3)
1(1)
1(1)
1(1)
1(0)
1(7)
1(9)
1(18)
1(23)
1(11)
1(1)
1(14)
1(9)
1(12)
1(4)
1(12)
1(2)
1(6)
1(0)
1(13)
1(6)
1(5)
1(2)
1(1)
1(4)
1(5)
1(2)
1(2)
1(0)
1(7)
1(12)
1(0)
1(22)
1(3)
1(2)
1(9)
1(9)
1(14)
1(4)
1(0)
1(4)
1(13)
1(15)
1(17)
1(1)
1(5)
1(10)
1(0)
1(6)
1(1)
1(1)
1(5)
1(0)
1(4)
1(1)
1(4)
1(18)
1(4)
1(1)
1(1)
1(0)
1(7)
1(27)
1(2)
1(1)
1(0)
1(14)
1(0)
1(18)
1(8)
1(7)
1(1)
1(7)
1(14)
1(3)
1(3)
1(2)
1(2)
1(13)
1(1)
1(2)
1(3)
1(8)
1(8)
1(0)
1(10)
1(6)
1(0)
1(9)
1(5)
1(19)
1(4)
1(11)
1(0)
1(1)
1(7)
1(0)
1(3)
1(0)
1(11)
1(0)
1(15)
1(10)
1(9)
1(0)
1(1)
1(3)
1(14)
1(7)
1(7)
1(2)
1(0)
1(6)
1(4)
1(8)
1(10)
1(7)
1(8)
1(2)
1(4)
1(5)
1(1)
1(1)
1(2)
1(30)
1(6)
1(5)
1(0)
1(0)
1(10)
1(2)
1(5)
1(4)
1(12)
1(1)
1(3)
1(3)
1(3)
1(2)
1(6)
1(1)
1(3)
1(0)
1(2)
1(4)
1(1)
1(2)
1(16)
1(10)
1(2)
1(8)
1(3)
1(1)
1(13)
1(1)
1(0)
1(7)
1(0)
1(1)
1(6)
1(6)
1(0)
1(9)
1(11)
1(0)
1(0)
1(9)
1(7)
1(1)
1(1)
1(1)
1(1)
1(0)
1(33)
1(1)
1(9)
1(14)
1(1)
1(15)
1(3)
1(6)
1(3)
1(5)
1(4)
1(6)
1(3)
1(9)
1(1)
1(5)
1(0)
1(1)
1(9)
1(7)
1(11)
1(3)
1(13)
1(2)
1(3)
1(12)
1(14)
1(10)
1(2)
1(6)
1(10)
1(5)
1(7)
1(2)
1(2)
1(20)
1(2)
1(6)
1(0)
1(18)
1(29)
1(3)
1(4)
1(8)
1(10)
1(3)
1(2)
1(4)
1(0)
1(2)
1(4)
1(16)
1(1)
1(2)
1(15)
1(6)
1(4)
1(13)
1(5)
1(1)
1(8)
1(0)
1(1)
1(11)
1(2)
1(1)
1(23)
1(8)
1(3)
1(36)
1(7)
1(4)
1(2)
1(7)
1(5)
1(6)
1(8)
1(0)
1(0)
1(8)
1(12)
1(4)
1(1)
1(2)
1(14)
1(9)
1(2)
1(6)
1(7)
1(6)
1(0)
1(17)
1(15)
1(6)
1(8)
1(2)
1(12)
1(7)
1(10)
1(2)
1(12)
1(15)
1(6)
1(10)
1(0)
1(5)
1(15)
1(4)
1(2)
1(1)
1(2)
1(4)
1(1)
1(22)
1(1)
1(12)
1(0)
1(0)
1(2)
1(4)
1(1)
1(0)
1(7)
1(0)
1(9)
1(11)
1(8)
1(9)
1(10)
1(5)
1(21)
1(3)
1(6)
1(1)
1(0)
1(19)
1(1)
1(2)
1(7)
1(7)
1(11)
1(12)
1(14)
1(1)
1(7)
1(3)
1(2)
1(4)
1(7)
1(4)
1(0)
1(13)
1(3)
1(11)
1(0)
1(6)
1(9)
1(3)
1(2)
1(10)
1(4)
1(0)
1(2)
1(0)
1(3)
1(23)
1(7)
1(0)
1(7)
1(18)
1(3)
1(11)
1(4)
1(16)
1(21)
1(10)
1(26)
1(1)
1(3)
1(14)
1(5)
1(5)
1(6)
1(18)
1(5)
1(5)
1(2)
1(2)
1(14)
1(0)
1(7)
1(0)
1(16)
1(1)
1(1)
1(7)
1(5)
1(16)
1(12)
1(8)
1(6)
1(6)
1(5)
1(1)
1(3)
1(2)
1(8)
1(1)
1(16)
1(1)
1(22)
1(3)
1(0)
1(12)
1(24)
1(2)
1(22)
1(4)
1(5)
1(7)
1(3)
1(1)
1(1)
1(6)
1(0)
1(19)
1(3)
1(7)
1(4)
1(2)
1(4)
1(0)
1(0)
1(3)
1(0)
1(0)
1(26)
1(3)
1(11)
1(5)
1(1)
1(2)
1(1)
1(4)
1(14)
1(2)
1(0)
1(46)
1(6)
1(21)
1(6)
1(24)
1(1)
1(5)
1(16)
1(0)
1(5)
1(6)
1(3)
1(10)
1(3)
1(7)
1(7)
1(4)
1(15)
1(2)
1(11)
1(23)
1(20)
1(3)
1(0)
1(1)
1(2)
1(4)
1(3)
1(6)
1(2)
1(0)
1(0)
1(5)
1(15)
1(7)
1(10)
1(8)
1(2)
1(3)
1(1)
1(23)
1(6)
1(3)
1(4)
1(7)
1(7)
1(16)
1(28)
1(9)
1(7)
1(12)
1(1)
1(1)
1(0)
1(3)
1(0)
1(5)
1(12)
1(4)
1(12)
1(15)
1(10)
1(26)
1(3)
1(24)
1(7)
1(1)
1(0)
1(12)
1(2)
1(9)
1(8)
1(0)
1(9)
1(4)
1(13)
1(1)
1(3)
1(29)
1(1)
1(2)
1(4)
1(6)
1(14)
1(19)
1(3)
1(4)
1(0)
1(10)
1(2)
1(12)
1(5)
1(18)
1(17)
1(2)
1(3)
1(1)
1(2)
1(1)
1(17)
1(8)
1(20)
1(1)
1(2)
1(6)
1(4)
1(0)
1(0)
1(0)
1(6)
1(1)
1(0)
1(9)
1(4)
1(0)
1(3)
1(4)
1(7)
1(16)
1(0)
1(13)
1(8)
1(8)
1(0)
1(11)
1(0)
1(3)
1(7)
1(0)
1(15)
1(2)
1(1)
1(21)
1(8)
1(12)
1(2)
1(23)
1(6)
1(5)
1(0)
1(0)
1(8)
1(1)
1(7)
1(4)
1(6)
1(5)
1(17)
1(6)
1(0)
1(0)
1(5)
1(1)
1(2)
1(9)
1(6)
1(4)
1(0)
1(8)
1(0)
1(1)
1(5)
1(0)
1(9)
1(0)
1(14)
1(1)
1(0)
1(3)
1(5)
1(5)
1(3)
1(1)
1(6)
1(13)
1(3)
1(1)
1(4)
1(9)
1(9)
1(2)
1(3)
1(1)
1(0)
1(13)
1(20)
1(3)
1(1)
1(3)
1(23)
1(7)
1(5)
1(2)
1(7)
1(2)
1(8)
1(0)
1(11)
1(1)
1(3)
1(1)
1(3)
1(5)
1(1)
1(2)
1(9)
1(0)
1(7)
1(0)
1(6)
1(8)
1(3)
1(5)
1(5)
1(5)
1(1)
1(7)
1(6)
1(1)
1(4)
1(4)
1(11)
1(0)
1(9)
1(6)
1(3)
1(3)
1(4)
1(4)
1(2)
1(7)
1(1)
1(0)
1(7)
1(1)
1(0)
1(2)
1(2)
1(2)
1(31)
1(7)
1(0)
1(8)
1(8)
1(3)
1(2)
1(3)
1(4)
1(6)
1(1)
1(4)
1(1)
1(17)
1(2)
1(4)
1(15)
1(4)
1(15)
1(5)
1(17)
1(4)
1(3)
1(2)
1(1)
1(4)
1(0)
1(2)
1(3)
1(9)
1(4)
1(6)
1(6)
1(1)
1(3)
1(3)
1(0)
1(1)
1(17)
1(1)
1(2)
1(1)
1(12)
1(17)
1(5)
1(6)
1(17)
1(0)
1(11)
1(4)
1(0)
1(4)
1(3)
1(8)
1(1)
1(5)
1(3)
1(3)
1(14)
1(3)
1(1)
1(4)
1(6)
1(0)
1(0)
1(2)
1(5)
1(5)
1(4)
1(12)
1(0)
1(0)
1(8)
1(4)
1(3)
1(4)
1(3)
1(3)
1(5)
1(2)
1(4)
1(0)
1(12)
1(4)
1(6)
1(0)
1(1)
1(4)
1(9)
1(12)
1(16)
1(2)
1(15)
1(4)
1(5)
1(10)
1(2)
1(17)
1(7)
1(0)
1(4)
1(0)
1(4)
1(2)
1(2)
1(13)
1(15)
1(6)
1(0)
1(11)
1(1)
1(0)
1(0)
1(14)
1(6)
1(1)
1(18)
1(9)
1(10)
1(14)
1(4)
1(2)
1(0)
1(6)
1(13)
1(1)
1(1)
1(11)
1(10)
1(2)
1(8)
1(3)
1(13)
1(4)
1(5)
1(3)
1(0)
1(4)
1(17)
1(16)
1(0)
1(9)
1(5)
1(5)
1(1)
1(2)
1(3)
1(7)
1(7)
1(4)
1(3)
1(14)
1(13)
1(4)
1(12)
1(1)
1(1)
1(1)
1(5)
1(4)
1(3)
1(1)
1(1)
1(10)
1(4)
1(0)
1(10)
1(8)
1(2)
1(6)
1(9)
1(4)
1(7)
1(0)
1(3)
1(14)
1(0)
1(5)
1(4)
1(14)
1(1)
1(4)
1(13)
1(24)
1(8)
1(2)
1(4)
1(5)
1(1)
1(2)
1(6)
1(0)
1(3)
1(6)
1(2)
1(12)
1(5)
1(2)
1(6)
1(14)
1(3)
1(16)
1(2)
1(12)
1(19)
1(2)
1(3)
1(14)
1(5)
1(5)
1(1)
1(14)
1(1)
1(6)
1(4)
1(1)
1(5)
1(3)
1(28)
1(5)
1(2)
1(6)
1(5)
1(12)
1(12)
1(23)
1(0)
1(2)
1(7)
1(15)
1(18)
1(10)
1(24)
1(9)
1(5)
1(2)
1(1)
1(1)
1(2)
1(3)
1(19)
1(2)
1(3)
1(1)
1(1)
1(0)
1(3)
1(13)
1(6)
1(7)
1(13)
1(1)
1(25)
1(1)
1(15)
1(0)
1(6)
1(1)
1(3)
1(0)
1(30)
1(6)
1(0)
1(21)
1(4)
1(3)
1(4)
1(0)
1(15)
1(1)
1(4)
1(5)
1(2)
1(6)
1(1)
1(1)
1(5)
1(1)
1(2)
1(4)
1(0)
1(5)
1(6)
1(19)
1(5)
1(3)
1(4)
1(1)
1(6)
1(0)
1(14)
1(8)
1(8)
1(2)
1(0)
1(4)
1(6)
1(12)
1(8)
1(0)
1(4)
1(14)
1(0)
1(1)
1(12)
1(1)
1(1)
1(1)
1(6)
1(9)
1(12)
1(1)
1(2)
1(14)
1(3)
1(5)
1(1)
1(3)
1(0)
1(4)
1(9)
1(3)
1(0)
1(6)
1(1)
1(1)
1(5)
1(5)
1(4)
1(0)
1(7)
1(25)
1(0)
1(0)
1(8)
1(1)
1(3)
1(50)
1(3)
1(2)
1(15)
1(6)
1(6)
1(7)
1(4)
1(1)
1(0)
1(0)
1(14)
1(4)
1(8)
1(8)
1(5)
1(3)
1(7)
1(0)
1(2)
1(0)
1(0)
1(27)
1(24)
1(8)
1(7)
1(4)
1(1)
1(2)
1(9)
1(4)
1(4)
1(5)
1(4)
1(2)
1(0)
1(2)
1(0)
1(5)
1(9)
1(4)
1(9)
1(5)
1(0)
1(15)
1(45)
1(2)
1(3)
1(1)
1(2)
1(6)
1(4)
1(0)
1(7)
1(3)
1(4)
1(16)
1(22)
1(5)
1(2)
1(14)
1(6)
1(5)
1(0)
1(9)
1(1)
1(1)
1(5)
1(4)
1(0)
1(6)
1(4)
1(8)
1(5)
1(2)
1(2)
1(6)
1(1)
1(3)
1(3)
1(2)
1(4)
1(7)
1(4)
1(2)
1(2)
1(19)
1(5)
1(8)
1(12)
1(0)
1(0)
1(1)
1(1)
1(1)
1(2)
1(2)
1(4)
1(1)
1(6)
1(4)
1(23)
1(0)
1(4)
1(17)
1(5)
1(10)
1(9)
1(5)
1(23)
1(5)
1(7)
1(8)
1(14)
1(10)
1(6)
1(3)
1(10)
1(0)
1(1)
1(7)
1(1)
1(8)
1(0)
1(11)
1(0)
1(1)
1(13)
1(0)
1(4)
1(10)
1(2)
1(7)
1(7)
1(2)
1(3)
1(5)
1(1)
1(6)
1(7)
1(7)
1(2)
1(5)
1(18)
1(7)
1(5)
1(5)
1(3)
1(8)
1(0)
1(0)
1(8)
1(2)
1(8)
1(5)
1(0)
1(4)
1(14)
1(1)
1(1)
1(4)
1(5)
1(2)
1(10)
1(0)
1(1)
1(21)
1(2)
1(5)
1(1)
1(5)
1(1)
1(0)
1(9)
1(2)
1(4)
1(11)
1(11)
1(1)
1(2)
1(9)
1(0)
1(15)
1(9)
1(0)
1(3)
1(12)
1(24)
1(4)
1(21)
1(0)
1(16)
1(9)
1(1)
1(5)
1(2)
1(0)
1(4)
1(30)
1(1)
1(30)