/*--------------------------------*- C++ -*----------------------------------*\
| =========                 |                                                 |
| \\      /  F ield         | OpenFOAM: The Open Source CFD Toolbox           |
|  \\    /   O peration     | Version:  v1706                                 |
|   \\  /    A nd           | Web:      www.OpenFOAM.com                      |
|    \\/     M anipulation  |                                                 |
\*---------------------------------------------------------------------------*/
FoamFile
{
    version     2.0;
    format      ascii;
    class       scalarField;
    location    "0/lagrangian/dsmc";
    object      ERot;
}
// * * * * * * * * * * * * * * * * * * * * * * * * * * * * * * * * * * * * * //


99998
(
7.03815337032467e-20
9.23050170644399e-20
5.31969934641308e-22
2.74880185608287e-19
3.51683601842576e-20
4.32774697087997e-20
1.27556825076621e-20
1.94679414680639e-19
5.35769523880008e-19
2.87520242857878e-20
7.75181385727696e-20
6.49377009144645e-20
4.81910503626955e-20
7.08876269354879e-20
4.19053686502141e-19
4.90457789128299e-20
1.58558563066178e-19
7.94943886232192e-21
9.72434111669653e-20
1.60125842932758e-20
2.68025234651527e-20
2.06772677441222e-19
4.74482518491271e-20
4.16715704530741e-20
3.25977341198164e-20
3.20570713270799e-20
8.70791734475762e-20
4.67004068135558e-20
2.05869307031485e-20
1.4667879093429e-19
1.62867505850884e-19
2.1032657110615e-19
1.27828970553213e-19
6.41344197462855e-19
1.43684719299705e-19
7.78206820044796e-20
8.72600796343533e-20
1.08877517160711e-19
3.00461606150293e-19
3.06236353240567e-19
5.13884216629183e-19
1.56554614770489e-19
3.41550056329546e-19
3.53427923647914e-19
1.45394493727004e-22
1.43415180222912e-19
1.27698421395814e-19
3.18133072796963e-20
7.74948417544781e-20
1.17931053993758e-19
4.82026578171998e-20
9.19330121598056e-20
1.91609722425314e-19
4.58857501753895e-20
9.82422060220671e-20
6.10915175777275e-19
1.45778871421576e-20
3.63288178822506e-20
1.40664172351374e-19
1.48564167243964e-20
6.3425789458639e-19
1.3449129324291e-19
4.19287354564758e-19
3.30652341185231e-20
9.47548226576246e-20
8.61333621041245e-20
2.8894159430638e-20
7.50068790411489e-20
3.22440846161804e-19
5.23965918362295e-20
2.31084354352907e-19
2.0760933521969e-19
2.74423523841139e-19
6.43382262119187e-19
2.29166184705863e-19
1.96077599641826e-19
5.20723870852429e-20
1.52973867840002e-20
1.19355694275198e-19
2.41524173200943e-19
1.73333886144065e-20
7.37664558843201e-20
8.95863928146574e-20
2.51319559688457e-20
9.30196969286858e-21
2.99986610686483e-20
6.21132909044615e-20
9.93441776189944e-20
7.83467688648861e-20
8.65494654841563e-20
2.02733685088587e-20
6.06128026590793e-20
6.68827668470526e-19
1.13794880648532e-19
1.24793165875282e-19
1.33014069267533e-19
1.071956730539e-19
1.22697949422977e-19
5.74227435897775e-20
1.21592955152742e-19
8.27015402371899e-20
1.73962150923248e-20
1.3538357535574e-19
1.82630955704926e-19
3.84618991128945e-21
1.40104379472415e-19
7.49701178089422e-21
1.31325085867473e-19
2.92907953077915e-19
2.7713790526242e-19
1.75539113731269e-20
3.99217793278466e-20
4.68752128716379e-20
6.69637280266627e-20
8.6562646560873e-21
7.33886531165881e-20
1.89311718191332e-19
7.20695151063726e-20
2.23973023216412e-20
2.92661017619977e-19
1.7484762262081e-19
4.40317840298337e-20
1.72065987912575e-20
7.71110550330717e-20
1.72177117696206e-19
3.21473765732916e-19
9.90841635684665e-20
1.0921540892672e-21
8.82093630336628e-20
4.1459525325589e-20
1.64566748614245e-19
3.81933046363423e-20
9.35313604216637e-20
7.41776783710297e-20
2.92114751035432e-19
6.37434731915575e-20
3.2150916229421e-20
1.17457702970189e-19
1.61346834970952e-19
9.1832368605937e-20
3.95774082009537e-20
1.42523950839437e-19
2.00929500306914e-19
1.1766131117945e-20
6.05499716181412e-20
1.86752698345523e-19
5.93235532535531e-20
3.36271120220564e-19
1.98909747918738e-19
2.58603504602586e-20
7.99070078973528e-20
4.11404319723431e-20
9.55084114250476e-20
5.63418243196081e-20
2.88913594368464e-19
9.57203344909522e-20
1.97134548688516e-19
5.18692886566212e-19
1.85504242949474e-19
9.37387570947464e-20
1.91486659912677e-19
4.66539504728642e-20
2.56539607774347e-19
4.37838625635922e-19
2.58792513186779e-19
1.84971149211021e-19
2.49146687891705e-19
1.65974507042605e-19
1.50850053256282e-19
2.42015028260325e-19
7.30359878369181e-20
3.27368291089768e-19
2.39907306053803e-19
3.37363035521331e-20
2.28644334065775e-19
3.11379499627093e-20
9.49032684383718e-21
1.61798043242161e-20
1.01979040799734e-19
1.47603047387514e-19
5.28004981939889e-20
2.5474927427686e-20
2.12679633462161e-20
8.7623983265957e-20
3.45882033498298e-20
3.64845893662651e-20
6.93695738128309e-20
7.39725258224368e-21
5.41566993308247e-20
5.49358714087506e-20
1.37930967722429e-19
1.27151296336108e-19
5.57386398576577e-20
1.52771616756511e-21
8.22542608572333e-21
6.94727787315227e-20
5.18717313914905e-20
6.08416046451229e-20
9.47933357784299e-20
4.32726957651115e-19
6.20861451861681e-20
6.14023511852718e-20
2.69985341730434e-19
1.48841687370967e-19
9.2999975105989e-20
1.58660858132465e-20
6.34528096090552e-20
2.55404415498222e-19
7.31229190481126e-20
5.53008511719891e-20
3.51089374431863e-19
9.29740838055417e-20
9.96450251852876e-20
3.03671528294552e-20
2.43737252876558e-20
2.21524237684762e-20
2.42422897316502e-20
5.87935093685342e-20
1.14177643269329e-19
3.64778481331673e-19
6.1545262768498e-20
2.12283411808945e-19
8.89238089559657e-20
3.0968887124328e-20
5.7596389518145e-20
9.32239046663173e-20
2.0620240065441e-19
7.30827633065856e-20
4.76456468208491e-20
3.8581063605638e-20
8.63454266419136e-20
4.58535426155491e-20
4.40711787266548e-20
1.2506044258207e-20
1.37046958619018e-19
4.1547773956548e-19
3.06239312567955e-19
1.49510768347594e-19
7.64253502042545e-20
3.20179561610441e-19
4.82327694464339e-19
2.74639095651712e-20
1.44510143210383e-19
6.7297264447198e-20
4.99449489379819e-20
6.3589309117522e-20
8.32020663938612e-20
6.81158484404059e-19
7.03327405510152e-20
6.27622085233167e-20
2.02824368974607e-19
1.68252900791681e-19
1.64042638763936e-19
6.84946316611353e-20
4.91749993220738e-20
5.21357560378097e-21
9.43567492037379e-20
1.09912317761229e-19
4.04297438633844e-20
1.0888447609459e-19
6.37308118538489e-20
4.15485924557884e-20
6.69099365953789e-20
1.06076090071671e-19
1.98712834251717e-21
2.04366636082402e-20
3.2219265367034e-21
6.80590187620881e-20
1.49980447450945e-20
3.68269144778119e-19
1.47091542629841e-19
1.23859647102523e-19
2.04954954226775e-19
2.13493626109075e-19
7.6762229213675e-20
5.02168109389749e-20
1.2073188971595e-19
1.3505980151513e-19
2.79573151972545e-20
2.32693994418265e-19
1.67071712678671e-20
2.18609300240086e-19
7.50585794083061e-20
7.36306288517299e-20
3.68864719331427e-19
2.69341815507086e-19
2.32586234342896e-19
1.59776700526715e-20
2.26433048816623e-20
4.2309476671845e-19
1.55183951278471e-20
6.50832774674174e-20
5.84309431905442e-20
1.57310111008536e-19
2.01552460393289e-22
6.81781130096707e-19
2.59320981302682e-19
8.48565984215062e-20
1.02901432748366e-19
5.11785232543432e-19
1.05369428889546e-19
8.20259254000814e-20
1.41527567985277e-19
4.70826101416358e-19
2.04925848989895e-19
2.23827862457497e-20
8.0994386051832e-20
1.0606891145697e-19
2.69158334419139e-19
2.50199645607164e-20
5.40438449322199e-20
3.70780219815599e-19
2.42543286418317e-20
1.14355120580143e-19
6.39911148599011e-20
2.66940926427128e-20
1.24454254444564e-19
2.38750989296416e-19
1.2371075313268e-19
1.34387694427833e-19
4.3865686772606e-20
1.72081199197826e-19
3.07584837994196e-19
1.52328502655605e-20
4.58023255697628e-20
3.5903434964042e-20
2.64435398029719e-19
1.87862776004773e-19
2.99092620373773e-19
1.24665560906866e-19
4.27003933359812e-19
9.91749758689673e-20
2.46225718667743e-20
2.39004205026806e-20
1.8630508755659e-19
3.98346404608085e-20
1.09336101793303e-20
2.26605317036781e-19
4.44264468178896e-19
2.66937877687067e-19
1.12446221103273e-19
1.71612978345949e-19
1.47323504879058e-19
2.47515583091069e-19
2.72054301368259e-20
1.27729889901486e-19
7.72852336318598e-20
8.09771213519003e-20
1.07041815689839e-19
2.33409774152981e-20
2.84378541664232e-20
1.19034664257604e-19
5.36718216401148e-20
1.61096044926315e-19
5.5153731379713e-20
2.92084804169982e-19
5.34905091361369e-20
8.73375237469257e-20
5.87103797588741e-20
8.39847191434006e-19
2.65136047812138e-20
9.53014845919699e-20
1.16982976043396e-19
2.36625543634876e-19
4.0853283698485e-20
8.19228882458608e-20
4.49060526340019e-20
2.02918934453579e-19
7.19550839448663e-20
1.33569980609199e-19
1.55100467238945e-19
4.38444905760012e-20
1.01795950223916e-19
5.41725959901169e-20
9.54609802741514e-20
2.8331866727944e-19
8.87879836065592e-20
5.84402733376863e-20
6.79280225643856e-20
2.01472415445424e-19
3.81624603177706e-19
1.47565239629583e-19
1.646274790659e-20
1.90617505579748e-19
1.13138312103975e-19
1.09485158103707e-19
1.67271378702124e-19
1.38848390103101e-19
3.26895342380611e-19
1.75909450066716e-19
2.09228811325126e-19
1.89610899059597e-19
4.87811893759994e-20
1.97673190418801e-20
2.78797197312114e-19
7.48233387150178e-20
5.96401883009704e-20
1.94159461908777e-19
1.23009565526623e-19
5.40916036244497e-20
3.11094126411816e-19
2.11666088833916e-19
3.08668433389376e-21
5.43763983319554e-20
1.86425999554593e-20
4.35035651076456e-19
8.15593334637726e-20
8.51950010523037e-21
1.5243543936302e-19
5.40738274811222e-19
9.22342686370325e-21
1.71233809427053e-19
3.06021048495501e-19
8.26191463359691e-20
3.1316941387537e-20
6.60908550135282e-20
1.11909552869565e-19
1.493427760348e-19
1.37718345098411e-20
3.64659195778874e-20
2.60702135574885e-19
8.02922661323881e-20
3.72031099134068e-19
1.45350803105405e-19
5.80632289943204e-20
3.23776276753216e-20
2.46304087211185e-20
2.50300288576761e-20
9.57304591985578e-20
3.11796049579063e-20
2.43148558435868e-20
1.69500372926428e-19
5.79807901383972e-20
3.11720331547413e-19
1.82373274184391e-19
1.68054551632975e-19
1.10519050778686e-19
7.6066980771628e-20
5.49107838283726e-20
2.63450495946489e-19
1.17715008726665e-19
1.39844078876123e-19
3.77758824137595e-20
1.51835474424672e-19
2.36302289505568e-19
1.92068925356367e-19
1.96426503809671e-19
7.45363306323053e-20
5.25169385475694e-20
1.57789007913171e-20
1.01282071478076e-19
3.21217886766247e-19
1.98986531595048e-19
3.40024396455796e-19
2.31244989741563e-19
5.41377987413069e-20
6.58725361539284e-20
2.26852335220771e-19
2.66394216294331e-19
2.31359410858305e-20
4.00460198124993e-19
1.11659962639777e-19
8.33368350193064e-20
2.85133101920859e-20
3.3064305852311e-21
1.39026908776967e-20
3.95493877746673e-21
1.03398609318819e-19
4.65042046678479e-20
3.21383493702784e-20
1.94682162131217e-19
1.19497929312388e-20
1.87352638271198e-19
3.96436817683663e-19
4.2288586694393e-19
1.60509731281843e-19
4.70413637866301e-20
2.85757182141211e-20
1.90835868917193e-20
5.8616806555667e-20
6.12389291742094e-19
1.78826853275473e-20
2.77076276081504e-19
8.86875518258639e-20
3.75952038898642e-20
1.70321677181928e-19
8.67528205759752e-20
7.57007980893803e-20
2.64042954792917e-19
8.45620040469563e-20
4.40010655382327e-19
6.50732285724173e-20
7.90086351097736e-20
1.03748661363882e-19
9.91147352929598e-20
2.00056647673769e-19
2.54962556259353e-19
1.39411170706554e-19
3.71373014259951e-20
3.64437885012179e-19
7.73422391721282e-21
6.59776029869932e-21
2.95615030913571e-19
4.00301954223838e-20
2.79731331810762e-20
5.21370082995331e-20
2.32107874178865e-19
3.84813834062215e-20
2.92585599792918e-19
4.12835880244706e-20
2.51122684674575e-20
6.84177420640983e-20
2.98603171808634e-19
4.40280556863685e-20
3.89940463178055e-19
3.38430919736033e-19
1.5757281098326e-19
2.52060971122574e-19
1.71548498356938e-19
2.48345161292494e-19
3.3043667274402e-20
1.01925386051731e-20
6.54824720554315e-20
1.41346093065414e-19
2.19135918774798e-19
3.68694490896028e-20
9.01123758391898e-20
3.02856992872392e-19
2.57814143804576e-20
9.07089725915494e-20
7.86564187896703e-20
1.02070035132559e-20
6.79203474408516e-20
5.07840431761646e-20
1.07458784269143e-19
2.50894633808326e-19
2.74731593676982e-19
2.64445870522505e-19
1.34808582316508e-19
2.52830308833995e-19
2.76917336921574e-19
5.56835005592944e-19
2.40353635200604e-19
3.94974398458931e-19
3.48686941426821e-19
1.33782851945754e-19
1.63514428354231e-20
7.09516843227471e-20
2.64613608563904e-19
2.78669810745716e-19
5.85979947997116e-20
2.14523658719786e-19
1.31612679432678e-20
6.21401483262034e-20
9.34333172505067e-20
1.15482106356842e-19
1.64766670987785e-19
3.42522660899709e-20
3.10025016102305e-19
1.48541222994806e-19
4.95515292413791e-20
1.51746484759159e-19
1.13531584066011e-19
6.58447711038438e-20
5.35515414544343e-20
1.72121781236029e-19
7.76462197970505e-20
9.15248294260786e-20
7.24259101940914e-20
2.7119275833313e-19
4.90697339519036e-20
4.84166491638133e-21
1.53521257825432e-20
4.68025377178863e-19
2.16962707632317e-21
1.82770338849712e-19
6.23718285286756e-19
1.04716536772215e-19
3.34790651067259e-20
3.54633098588574e-19
2.92509179814614e-21
1.11971888064621e-19
9.01778126294338e-20
4.21343836894255e-20
4.57398010887904e-20
2.63315800756029e-19
9.68577730372454e-20
5.16739632892346e-20
1.80571755567268e-19
3.09952448302319e-20
1.00413214354288e-19
1.44642590422746e-19
1.0511766385415e-19
4.86038566519302e-20
5.05186799426257e-20
5.85842535713856e-20
1.23656106718683e-19
3.04272977319026e-19
1.19266874698753e-19
8.07444925818327e-21
7.16177298361647e-19
6.2932686298717e-20
3.54210678018593e-19
8.69942604477513e-20
2.39470538567575e-20
4.30849005229469e-20
1.71726301660581e-21
2.05738033992121e-21
1.5261464687875e-19
4.87507406113346e-19
2.67456001051026e-19
2.5882918288596e-20
4.48352548268217e-19
3.54973270039602e-20
1.72541914079919e-20
3.50751777355436e-19
2.03278754411492e-19
1.35301620813782e-20
6.54982561530058e-21
6.00793285077067e-20
1.62905217542931e-19
5.52100853282121e-20
9.78061468086055e-21
9.65573939798203e-20
5.85679484080327e-20
1.85218159691665e-19
5.48358083347346e-20
4.14026537505453e-20
2.24885273178311e-19
1.99550488142684e-20
1.37616182977227e-19
1.80470647836579e-19
7.10160071734433e-20
1.11156909417793e-19
1.00659686613878e-19
6.42460485907915e-20
1.62924880181074e-19
1.01447850467605e-19
3.24584989176269e-19
9.8520265445812e-20
1.04736578311819e-19
6.24555816137049e-20
5.05417899768069e-20
1.16366946449166e-19
5.59200382576342e-20
4.46938478293226e-20
1.31899647366463e-19
1.9960485443854e-19
2.04887157568769e-20
1.08174041832236e-19
2.53383418648857e-20
1.3441161585713e-19
2.52225846308064e-19
1.39542335769108e-19
3.11975679734632e-19
4.03295592074306e-19
7.10956979580725e-20
1.12011159437662e-19
3.73524799620828e-20
4.3043654344072e-20
2.8920850530481e-20
9.49387826207513e-20
2.12883482213633e-20
3.0295470490223e-20
2.04649252018067e-19
2.46953701564565e-20
1.37064079760862e-20
6.2475135356554e-20
1.52864592185261e-19
1.38419754375989e-20
8.96817664332385e-20
2.04552149219996e-19
1.9445182570231e-19
4.54945817433531e-19
4.29627047964195e-19
6.54771033660383e-19
1.02735268113255e-19
4.13257242412532e-19
1.07315822053904e-19
1.02931823979001e-19
1.91959468966112e-19
1.93967796195373e-19
1.61807446555563e-20
3.37359367494939e-19
2.19973775909444e-19
1.09267080347542e-20
3.03768549769033e-19
6.93324608569201e-20
1.18767758501773e-19
3.17892223933639e-19
9.67023103147601e-20
5.82839130703833e-20
2.26214528673499e-19
1.25164773955921e-20
1.81634336347218e-20
5.63120130285272e-20
6.47034090086515e-20
2.38691495220754e-19
2.3669364396145e-19
1.99990128972555e-19
8.98267131674978e-20
2.60370956199188e-19
2.1545024125135e-20
8.93555588420953e-20
1.36669012243865e-19
6.33781080335412e-20
1.76128021915965e-19
1.43465833574981e-19
3.9336768188864e-20
1.42830104523628e-19
1.04521975698448e-19
4.6048711368847e-20
4.69717077767539e-21
8.89200268292517e-20
1.33781421272281e-19
1.29242970056477e-19
4.18498788882763e-20
5.17784012735287e-20
6.77885193304627e-20
3.54350701472072e-19
5.91655337678031e-20
1.67575215866973e-20
3.24662700550165e-21
1.62685313245294e-20
1.33197181832606e-19
2.06878142328553e-19
1.3518957394634e-19
1.346958503197e-19
2.36319360719424e-21
8.13826457230522e-21
1.30891548766034e-20
1.47150873804105e-19
7.33284259159913e-20
2.45120889571265e-19
3.17793803058571e-19
1.39292613132112e-19
3.00173107942112e-20
4.08633540810082e-20
3.68744257980201e-19
2.5678723334204e-20
3.97160249269587e-20
7.06369926084355e-19
7.56442343739223e-21
3.50750625377633e-20
2.56815134655901e-20
3.22095796125888e-19
1.36170542711651e-19
1.07669799710234e-19
3.07228977274296e-21
8.42170085411261e-20
2.17491001959731e-19
7.756510147951e-20
1.15280869350086e-19
3.3600575819429e-19
3.20472448200198e-21
6.33162394510852e-20
1.43515212446942e-19
1.8691510709524e-20
4.22372444636739e-19
9.67950349414229e-20
5.05714440304395e-20
8.38885820392365e-20
3.89644311998248e-20
1.40210871641974e-19
5.14089782054837e-19
1.57532445813653e-19
1.30612804765486e-19
5.27487221305372e-20
1.51524306050213e-20
6.85260677411721e-20
6.77574002017152e-20
4.46206950703148e-20
8.70263037735235e-21
4.27350331371929e-19
6.25143785619377e-20
1.96852394617762e-19
1.30160987252507e-19
2.07353678397888e-19
4.7672300258519e-20
8.62886487749221e-20
1.86262807788122e-19
1.04682640252439e-19
7.41348579563631e-21
1.18175375672913e-19
3.38596704815168e-20
2.34440602793761e-19
1.26914519035349e-19
1.06006131005996e-19
8.25529601783879e-20
1.59448176802908e-19
5.07669936760521e-20
6.16494079353088e-20
1.51845803231747e-20
1.06321244555846e-20
4.06147812020412e-20
1.14554727914225e-19
2.92756090416818e-19
5.49653854260654e-19
2.06460917297501e-19
1.07642914706475e-19
1.53785544004139e-19
3.53016992059822e-19
4.8648915180765e-20
4.12337054892719e-20
2.89443089853264e-19
8.10494266132258e-20
3.28855470678945e-20
2.46421716539421e-20
7.66260994131171e-20
3.55977333219976e-19
2.95808478630581e-19
3.86405202921306e-19
2.69486757575877e-19
5.18405671303072e-21
1.32299456062967e-19
1.01534020802451e-19
1.66498573135012e-19
4.792287706903e-21
1.61570280182558e-19
1.53307110792081e-20
1.60234479745776e-19
2.92747806458732e-19
3.40513610965809e-19
1.78838959722504e-19
2.0498823583551e-19
2.66023488845956e-21
1.06142364084348e-19
1.5222631583894e-19
1.18507687752443e-20
1.46526082190863e-19
5.69059703134736e-21
3.63526083385955e-21
4.43443170787853e-20
2.48138556150744e-19
9.76025313759693e-20
5.79174533724009e-20
1.96711124261712e-21
7.80035688579407e-20
4.16635499180822e-20
7.09050921256131e-20
1.09141168651494e-19
2.68168367769047e-19
3.32274390630428e-20
2.49523256810017e-19
3.54194640938577e-20
3.29226188042672e-19
5.12731465292075e-20
1.94538959004093e-20
6.94736948363088e-20
1.19382345230286e-19
2.19095452872452e-19
2.74389343584834e-20
1.746679014466e-19
9.54434878804577e-20
5.1765579509635e-20
7.08797741425797e-20
1.28461604086151e-19
5.74851575893994e-20
1.20622754877044e-19
8.9826689148499e-20
3.33338535184388e-20
4.22735685484888e-20
1.9184068537315e-19
2.73129086203442e-19
5.45940123481795e-20
2.6522177115947e-19
4.83753175901195e-19
7.60490521625853e-21
5.64977643339553e-20
1.05299309518988e-19
4.77245737302375e-20
9.48511347473398e-20
2.51455421087297e-19
1.76222648728416e-19
7.68582204852885e-21
2.22696837916529e-19
1.03671707878256e-19
1.0067670776094e-19
1.10855046272302e-19
2.77373967960793e-19
1.9205398778239e-20
1.82272005139201e-19
3.82905777564419e-19
7.18975854973603e-20
1.09428263595387e-20
1.11724860316875e-19
3.12101810137348e-20
1.48915035665373e-20
5.45558282548157e-19
2.23873317560371e-19
5.42781644547977e-20
1.89328052946419e-19
6.63620941663438e-19
4.67774349061768e-19
6.20239671922651e-19
1.63578625544555e-19
3.27173214939886e-20
3.15973938199358e-19
2.90880777890316e-19
3.59335140724423e-20
2.56464725240874e-19
1.86227096351574e-20
2.6697995868843e-19
1.23889832994423e-20
1.60471210152928e-19
6.18694395657079e-20
7.26926335364713e-20
1.2730766393435e-18
1.11349919891139e-19
4.95487191294618e-20
7.62701721024756e-20
2.63515016397599e-19
1.47070551751392e-19
1.94183589355311e-19
1.72861699053225e-19
2.55988117149823e-20
1.42218018881634e-19
4.08125216347457e-19
3.99064724748907e-20
4.11628425830087e-20
6.81562988228725e-20
7.19875681337194e-20
1.40944618664462e-19
1.60172030885556e-19
3.48381199856982e-19
4.46787700860826e-20
3.0206764947415e-19
7.90098667526247e-20
2.53621026831785e-21
3.54092003639499e-19
4.2798232409151e-20
5.44853443485376e-20
4.70835548399225e-20
6.98494881935117e-20
6.7172004009681e-20
5.0135112554061e-20
1.00208240583935e-19
2.1782832976268e-19
8.76271284701402e-21
1.12840383669601e-20
1.10206552899619e-19
9.17272966554331e-20
6.3621573215738e-20
1.12858005833237e-19
1.01571455616581e-19
1.72915792171756e-20
7.90193527058602e-21
1.1399889259164e-20
1.92059646775504e-19
1.78372157145515e-19
1.17089351527737e-19
1.70787759740204e-19
3.68857587939983e-20
1.34022113757871e-19
9.78466829068819e-20
2.61686936877804e-19
3.96976850766683e-19
6.02580640689328e-20
2.4118899392751e-19
2.24689446754141e-19
5.31580216201404e-19
1.80134303798859e-19
8.31263097109197e-20
3.00778815758757e-19
1.11217915257123e-19
1.06642544649876e-19
8.03849815373334e-20
9.64361812730088e-21
1.46478911727508e-20
1.2509799831862e-19
2.18979581425033e-19
5.76965282126084e-20
2.27930672307478e-19
9.43105703413248e-20
2.11622366018453e-19
8.35194461162976e-20
7.55211580374882e-19
3.74469258301448e-19
7.47631715797121e-20
2.40822808526382e-19
4.22112287669196e-20
3.19411544420952e-19
4.22473810667974e-20
9.79231593600618e-20
6.59119895907182e-21
1.68390293617973e-19
1.61129613624498e-19
2.23540245198749e-19
8.14056885328572e-20
4.00641487360407e-20
1.3999745276911e-19
1.00582335677543e-19
4.24695500122226e-19
1.705286016592e-20
1.66304410784783e-19
2.270541024178e-19
1.59926614603533e-19
5.04854125131519e-20
4.35975435528334e-20
2.06529406033328e-20
5.65865960462528e-21
1.28772811027875e-20
2.98491976884114e-19
2.26297604144007e-20
4.96351611904597e-20
1.0770080361827e-19
2.82640433825744e-19
1.17868408205235e-19
1.36594964784919e-19
1.6483176689915e-20
3.46257453700263e-19
4.82657743488592e-20
2.14901688275616e-19
1.72124701216414e-19
1.1267479916876e-19
4.42681915017565e-20
3.62120315764495e-19
2.52483377291455e-19
3.27354130771222e-20
6.93022758623412e-20
1.2493931403217e-20
7.21569571492416e-21
2.0832226016758e-20
4.39312104892298e-20
1.14091195115765e-19
9.13588585659663e-20
9.86869619085644e-20
1.22964987339556e-19
2.75291839520813e-21
2.03052488012888e-19
3.73704214116998e-19
1.28059273354602e-19
1.50291101549224e-19
1.44569197871539e-19
7.29390302437489e-20
3.76832499014026e-20
3.08518592061726e-20
4.8792395082336e-19
1.25006136990403e-19
2.06469673728638e-19
3.1684850157213e-20
8.58607512402263e-21
1.29013227491961e-19
2.68121707252723e-21
2.6441265853057e-20
2.12454279672105e-19
2.01378239396647e-19
2.45044650603886e-19
9.77573755769444e-20
1.78791759701943e-20
2.315934844351e-19
8.57246128851933e-21
1.27619995629616e-19
8.00490292402129e-21
1.6077261468684e-19
3.9044130750305e-20
3.87224633384187e-19
2.83991836272419e-19
2.92254995853276e-19
4.25246497535762e-19
1.27245164509365e-20
6.42543632002652e-21
9.28346592949809e-20
3.28162524925794e-19
3.60262288330627e-20
1.16715864884927e-20
2.51918535963263e-19
3.3736762012733e-22
2.8011975157629e-20
3.37326236346521e-20
4.21900729680767e-20
3.97510171288038e-19
7.11052589874005e-20
3.25279406787127e-19
5.94143371717249e-20
1.34664465352145e-19
1.10869791880891e-19
2.64182209450679e-19
2.29061481999973e-19
6.65359456885336e-20
1.66191359751046e-20
1.07549625497748e-19
1.61402758099746e-19
5.07362052943308e-20
1.03635917550935e-19
4.56689695173563e-20
8.27336593180297e-20
3.84895088180445e-20
4.5317752818696e-20
2.62037713932543e-19
1.73598981472356e-19
1.22974713611714e-19
7.38986340161694e-20
4.1212345468853e-19
3.33157605433675e-20
1.2851489370185e-19
7.18765794478254e-20
1.56395848029617e-19
2.45891625007035e-20
3.27671152238796e-19
2.05562931477805e-19
3.88135031421962e-20
5.82072226331904e-19
4.81282478656398e-20
4.20766734232354e-20
7.37538967152034e-20
1.68720197453099e-19
1.34093315375084e-20
1.72652138364669e-19
1.07894567253233e-20
2.61697633537221e-19
3.66610806472362e-19
1.32012122938979e-19
1.66819375702612e-19
7.09265715750187e-20
7.09036850802659e-21
4.35409903868256e-20
1.29840587646598e-20
8.04979015911607e-20
2.64776826771736e-20
1.22671859396967e-19
1.14116156582072e-19
6.51022856109506e-20
8.31135147171768e-20
3.81385340793993e-21
1.05689271056608e-19
1.49463933361671e-20
1.99123054260788e-19
3.26669912261524e-20
6.87315939328628e-20
1.74985863125737e-19
2.12997922382759e-19
5.35109227187333e-21
4.11320645545031e-19
7.64234961191069e-20
9.18147144443314e-20
3.30111398978739e-19
2.63964303703103e-20
6.68956310214078e-20
3.74373452496002e-22
7.44314311947333e-20
1.26380710231844e-19
3.09518096443259e-20
6.52355095788798e-20
1.39602667254308e-19
7.35348031356134e-20
2.27011374663335e-19
2.19591019528982e-20
5.61971043578487e-20
1.3997515410063e-19
2.57882180349614e-19
1.15536829769577e-19
2.10585851950247e-19
1.01076796151237e-19
9.10523766308823e-20
6.16788192938809e-21
8.6850786081769e-20
1.41437560052715e-19
2.03978079541432e-19
3.60956897213554e-19
8.98458532271998e-20
3.64239825653691e-19
6.45239496514658e-19
3.76865186891479e-19
3.3645065327282e-19
7.83438368712127e-21
2.60630290949928e-20
5.01074325162979e-20
6.20380042219085e-20
1.54127544622187e-19
2.05329327365061e-20
2.73853063842376e-19
6.9941160870097e-20
9.23290264798737e-20
2.57163785486451e-20
5.67154676211157e-21
2.53624126506048e-20
2.01140304149426e-20
1.00837768610985e-19
1.22738114337059e-19
4.39159242904142e-20
2.42224964160987e-21
1.8462108192606e-19
4.7633685405679e-20
3.90462084444232e-19
1.43468866466693e-19
9.87714486139141e-20
9.61171442776539e-20
1.03626369891084e-19
1.72934851429969e-19
3.09145991943194e-19
5.28204993448065e-20
3.00431388586733e-19
2.27359870383689e-20
1.8336741845067e-19
1.18207086741018e-19
8.06885450615622e-21
3.16423023142577e-20
9.39775783466417e-21
9.54978502987136e-20
8.38192231384684e-20
1.56956240423009e-19
6.4647856919758e-20
3.00329703068534e-19
3.19301806770739e-20
1.72111219678046e-19
2.62074106344588e-19
4.9846253440769e-21
9.62337310174254e-20
5.59075745250378e-20
7.96032453553943e-20
1.40183931746223e-20
3.77117438635804e-19
2.87363793413889e-19
6.56923275529507e-21
3.2904541470396e-19
4.98444220420835e-19
2.82347336619119e-19
1.47236668372932e-19
1.38220444426078e-19
3.62252928084438e-19
3.73443002086385e-20
2.5295666677553e-19
1.92023131294259e-20
1.53608683330104e-19
2.40198531044293e-19
3.88033464328167e-20
9.79004698407149e-21
4.73137701704814e-20
1.509961025587e-19
5.7807506721619e-20
4.90470254666129e-20
4.32526955917976e-20
1.5840986418014e-19
3.52819341899483e-19
1.27777990560505e-19
4.90352508730761e-20
3.11238564266377e-19
2.02155888628178e-19
1.42832986348359e-19
7.51703696957142e-20
2.08436346851418e-19
1.87986083559166e-19
9.30892500606752e-20
3.0238883722793e-19
7.9712285695572e-21
5.98251874115678e-19
1.25180592971534e-20
1.00464120910237e-19
6.36713175759022e-21
2.09778534253218e-19
9.20959500903219e-20
6.20792250004055e-20
1.82353384065077e-19
1.78238049459564e-20
2.28419909474845e-19
2.14378337602856e-19
4.90339895297213e-19
1.99437777110112e-20
1.82798547027854e-19
8.93802982349735e-20
8.53378701273184e-20
7.31106742239971e-20
2.84750683495469e-20
2.12132970854385e-19
1.39393360713115e-20
1.09829215730264e-19
1.61733857058767e-19
8.24655554356802e-20
1.39340389955128e-19
6.48994994781623e-20
1.29041726580405e-19
8.52536730708489e-20
7.37810973667048e-20
1.84601363279788e-19
1.61004693738922e-20
2.02278945130954e-19
2.3799953625634e-19
3.58116781172911e-20
3.34993736378596e-20
4.32892997902242e-20
1.34999662892471e-19
6.52427388595719e-20
8.90601418359022e-20
2.0695115860014e-19
4.13686855896655e-19
6.54632856560664e-20
1.11299616765924e-19
1.74632224293016e-19
1.18116434806105e-19
1.57490635652471e-20
1.61865390565534e-19
1.20150776652526e-19
1.20761595909929e-19
1.07584428269716e-19
3.85969588869196e-21
4.01981374454594e-20
5.49431467304431e-20
1.05573375333592e-19
1.31002255338111e-20
2.10461090011379e-20
7.987720315782e-20
2.11945509152357e-19
1.94410348530795e-19
1.8540206108365e-19
2.1143250921141e-19
2.65669426942284e-20
3.42302277694467e-19
3.76204286459367e-20
1.30624930372151e-20
1.38909940685454e-19
9.51628756893809e-21
1.52829021897799e-20
2.049115768406e-19
4.96774430090843e-20
1.27299138066069e-19
6.49135399514547e-19
3.79856087081057e-21
1.44563519567785e-19
1.85540710743567e-19
1.92763567933278e-21
1.17300894672153e-19
1.71575861335136e-19
1.30960524158618e-19
9.53484894523505e-22
9.12790192328845e-21
2.99403365740533e-20
1.54479777157054e-19
1.00333784639865e-19
8.02612645599835e-20
5.73775333654016e-19
8.78435080505047e-20
1.72927146583882e-22
3.58265715730101e-19
4.32417018937204e-20
8.26489459420293e-20
4.58838911778803e-19
1.24402055716429e-19
1.41901917642912e-19
2.22257769577333e-19
2.15435793481998e-19
1.53680855739154e-22
1.73243941800301e-19
4.62784006097726e-20
9.1268285890054e-20
3.87488472096073e-19
1.41032525199031e-19
1.73862751037402e-19
6.22732750322923e-20
1.22613274829107e-19
3.29701354493596e-20
6.63891640187918e-21
5.66033500067093e-20
7.93656936652677e-19
5.72102454044219e-20
1.50866718142915e-19
3.74226358970023e-20
4.87921465519071e-19
1.84231416368724e-20
1.37143372300965e-19
1.40499073238327e-19
1.08121779977787e-20
2.71848897164486e-19
3.1273611135399e-19
2.3345905395801e-20
1.8060648824086e-20
3.92588841113142e-19
2.06270473702947e-19
2.26951853076785e-20
1.57124605046431e-20
3.01744053618471e-19
2.00704103357301e-19
2.46290559650799e-20
3.46094836179173e-21
6.33172472814337e-20
1.83110036715701e-19
1.80074132134486e-20
1.67679788538166e-20
1.90840713234342e-19
1.75354858048993e-19
7.45590577015775e-20
1.70469282218133e-19
2.67612723536126e-19
9.9533715467817e-20
2.10333239411386e-19
2.24931086768462e-19
5.8572371004405e-20
1.55229801931241e-20
5.44868350088102e-20
6.89148275559795e-20
1.93808366295734e-19
4.89032323443753e-20
1.68647412781587e-21
7.14173919905651e-20
3.18421898194873e-21
3.02970257707971e-19
4.24528042931844e-19
2.09212746208496e-19