/*--------------------------------*- C++ -*----------------------------------*\
| =========                 |                                                 |
| \\      /  F ield         | OpenFOAM: The Open Source CFD Toolbox           |
|  \\    /   O peration     | Version:  v1706                                 |
|   \\  /    A nd           | Web:      www.OpenFOAM.com                      |
|    \\/     M anipulation  |                                                 |
\*---------------------------------------------------------------------------*/
FoamFile
{
    version     2.0;
    format      ascii;
    class       Cloud<dsmcParcel>;
    location    "0/lagrangian/dsmc";
    object      positions;
}
// * * * * * * * * * * * * * * * * * * * * * * * * * * * * * * * * * * * * * //

9999
(
(1.50169036531716e-06 4.54524307563529e-06 5.72270251539512e-06) 0
(5.73056778771601e-07 1.26231548242973e-06 2.454350736644e-06) 0
(1.76384262318537e-06 3.44565499558476e-06 6.40316697405032e-06) 0
(1.82366290420841e-07 7.74181156045119e-06 7.87256143518397e-06) 0
(2.83786411770675e-06 4.18243885497597e-06 6.61012901231191e-06) 0
(3.5421601291913e-06 3.98708169025868e-06 5.48304394338862e-06) 0
(3.00149862076555e-07 1.86144439084044e-06 3.7775646013794e-06) 0
(2.19823405088331e-07 1.00883158687248e-06 4.08193166142047e-06) 0
(1.84658847820725e-07 2.97932369993193e-06 5.6963198682436e-06) 0
(1.66028388567892e-07 2.18674948700139e-06 9.36652167087621e-06) 0
(2.54987178814778e-06 3.6614638788422e-06 5.3857425345136e-06) 0
(1.9752745996823e-06 2.60367905042239e-06 5.82309991130027e-06) 0
(4.91131106426135e-07 3.88716913747521e-06 7.53317868203753e-06) 0
(4.8507249105791e-07 9.21246182599711e-06 9.29993083867162e-06) 0
(2.60070348908775e-06 4.41201452573585e-06 5.43132251210737e-06) 0
(8.38118912687218e-07 3.11890895724298e-06 6.94160845094734e-06) 0
(1.13007049950015e-06 6.34436044195455e-06 8.0978039549955e-06) 0
(5.39688448864464e-07 3.18276041762454e-06 3.64240523610752e-06) 0
(4.64482726522828e-07 1.13139280900585e-06 1.96867930622586e-06) 0
(1.10927690289042e-07 3.83436087682123e-06 8.20038224352038e-06) 0
(1.90364342613822e-07 5.53177060753658e-07 6.69363342930835e-06) 0
(8.04026377797609e-07 3.341518637913e-06 8.06709389297437e-06) 0
(4.15402174010593e-06 4.36488949930867e-06 4.86351507256474e-06) 0
(7.54216780194295e-07 2.60841846134889e-06 5.32765799476293e-06) 0
(2.79848148822728e-06 5.95984963112089e-06 6.41022113515765e-06) 0
(1.18524871128098e-06 5.7464417927887e-06 7.80922426487941e-06) 0
(2.32807560654232e-06 5.80879070644412e-06 6.71988826302249e-06) 0
(2.36517246934014e-06 3.72003007162032e-06 6.56293390846681e-06) 0
(3.63754105662313e-07 5.42235750542686e-06 7.12351547026051e-06) 0
(1.1085403187057e-06 1.40907015514522e-06 3.12592976889583e-06) 0
(1.70181256650448e-07 6.20572098976178e-06 7.21655928702754e-06) 0
(3.08163339903782e-07 2.13832907104118e-06 6.86048764774588e-06) 0
(2.7776122583124e-06 4.81648622003016e-06 5.24562104608345e-06) 0
(5.73915245275209e-07 1.47152400152223e-06 6.31093838560133e-06) 0
(5.6246335179905e-07 1.53235509626834e-06 2.62760133464811e-06) 0
(2.65792953084164e-06 6.37202126927202e-06 6.9913754669072e-06) 0
(5.63014985186765e-07 2.74433634448494e-06 8.77967606762398e-06) 0
(3.86086580495421e-06 4.71486492550293e-06 5.93483626569819e-06) 0
(5.22533391651869e-08 1.36293601110237e-06 8.6940560343947e-06) 0
(2.64331251489747e-07 1.59529772289739e-06 9.68485729022211e-06) 0
(1.27277205347363e-06 2.91690450354279e-06 5.56628296733104e-06) 0
(1.27889285580547e-06 1.48571809237708e-06 4.96943738194311e-06) 0
(6.13618532644029e-07 2.94911013852014e-06 4.7669379194406e-06) 0
(6.00639928025775e-07 8.17433489772109e-06 9.18190593447195e-06) 0
(3.94166580635336e-08 3.53102779882645e-06 8.35809931748928e-06) 0
(1.30458200499959e-07 5.4038737938696e-06 7.8698735359033e-06) 0
(6.4309332231316e-07 7.60650062013877e-07 9.47580751712227e-07) 0
(1.71066889084626e-06 3.24454900790782e-06 5.31047547569953e-06) 0
(2.86677567459941e-06 3.57960159671238e-06 5.43284668593051e-06) 0
(1.25589003292962e-06 5.08543248614366e-06 6.11472835374883e-06) 0
(4.30476698549693e-07 1.71735498855556e-06 8.98940797243496e-06) 0
(5.27192987518124e-07 2.8272940806732e-06 4.21044733921613e-06) 0
(1.65059128355486e-06 3.56904223243776e-06 6.64186293402855e-06) 0
(2.49753771218179e-06 2.97884718974613e-06 4.00668569870048e-06) 0
(1.9241012591011e-06 4.03163991933527e-06 7.3459507806013e-06) 0
(4.83755816624996e-07 2.07201570649142e-06 3.64951867451291e-06) 0
(3.24421550339311e-06 5.78870936681232e-06 5.98226235308081e-06) 0
(5.46232043166839e-08 5.9529724986275e-06 9.93176042954094e-06) 0
(5.66061818370933e-08 4.5992116462779e-07 7.26351139142825e-07) 0
(1.18171095527897e-06 6.26932717146241e-06 7.04168048572773e-06) 0
(1.17084661249729e-06 5.69550799868692e-06 7.50098684868457e-06) 0
(1.63926160582756e-06 1.7889204858947e-06 3.67899847086138e-06) 0
(2.46069183651739e-06 3.93492133105438e-06 4.78684349380524e-06) 0
(1.5642115279852e-06 5.69560071270155e-06 5.95355526266323e-06) 0
(2.78750963521441e-06 6.09772445507369e-06 6.12013825586272e-06) 0
(1.26019611298918e-06 1.31578898258255e-06 4.90611834762561e-06) 0
(1.2994763746784e-07 7.02062597721747e-06 7.81910086371672e-06) 0
(1.96906524176992e-06 3.79107077373284e-06 5.8597800906464e-06) 0
(7.20421171176415e-07 1.13153824548421e-06 2.26158155016554e-06) 0
(1.4635461702351e-06 2.23058304619366e-06 6.721568537001e-06) 0
(3.26254697491972e-07 1.32571074826215e-06 1.43198817290832e-06) 0
(2.15607633805652e-06 2.60053500773489e-06 4.93551406704496e-06) 0
(2.09293125726942e-06 3.47019882498246e-06 5.16427920835595e-06) 0
(2.0434224433785e-06 3.03029925511746e-06 4.09433722028245e-06) 0
(2.19621693701368e-06 4.59846837377066e-06 6.25106358386711e-06) 0
(1.62943617674562e-06 5.74132858391886e-06 7.15439164882872e-06) 0
(2.11823518101273e-07 3.38247006235424e-07 1.48820948301397e-06) 0
(4.34897704123554e-07 1.81213979719471e-06 3.1665072583859e-06) 0
(8.50262992146433e-08 8.15760369662062e-07 8.12574997516714e-06) 0
(1.4112607639559e-07 4.01635678048363e-06 6.86285874299029e-06) 0
(4.52646139075501e-07 2.43848908178927e-06 9.26444186925847e-06) 0
(5.6862610063714e-07 4.13934166327785e-06 6.26033559180804e-06) 0
(1.09145610157473e-07 2.29310765954439e-06 4.64542762289062e-06) 0
(8.81412874416725e-07 4.59533960687207e-06 7.9931991615123e-06) 0
(3.49166033477122e-07 3.87333180285092e-06 4.64561356289947e-06) 0
(4.51278346435959e-07 3.99197763572738e-06 8.02452626887936e-06) 0
(2.24431971175765e-07 7.72917929053238e-06 8.09403434462174e-06) 0
(2.23140915555748e-06 4.53583736708987e-06 7.511379103049e-06) 0
(2.68899901847011e-07 2.07738036728296e-06 5.4207658799025e-06) 0
(7.14213507999215e-07 6.12627121597482e-06 8.43834592776998e-06) 0
(6.87892000876822e-08 8.2991213235732e-06 8.45482202627233e-06) 0
(2.66829306308001e-07 1.98326410785706e-06 2.64135697596283e-06) 0
(4.60767612480684e-07 4.96070249514562e-06 6.77587606337175e-06) 0
(9.35572575622032e-07 1.36468195983593e-06 5.57787174232591e-06) 0
(5.6120922842684e-08 3.1093016700015e-06 5.5205841628201e-06) 0
(1.56055463732052e-08 6.33629007226256e-06 8.33312506750963e-06) 0
(1.1587733254885e-06 2.84669425036897e-06 3.25367895336319e-06) 0
(6.96500735068124e-07 2.92241289172237e-06 3.57825883260139e-06) 0
(1.23688602317044e-06 1.49610890283016e-06 3.18343575354175e-06) 0
(7.51869955122153e-08 9.76070629203409e-07 6.73049005259545e-06) 0
(1.9741334526501e-06 5.30184051657313e-06 5.41709112918278e-06) 0
(2.47947052811574e-06 2.87736095687814e-06 5.02894208952055e-06) 0
(1.0682447033822e-06 6.988182226994e-06 7.67932520756696e-06) 0
(3.86583480167655e-07 7.6940552625606e-06 9.45426229518239e-06) 0
(1.53919430233968e-06 4.77773340225221e-06 5.36740613363976e-06) 0
(3.48169268712795e-07 2.54792275913079e-06 3.4824485772646e-06) 0
(2.5882922762832e-06 5.71930012182973e-06 6.22341087633226e-06) 0
(3.30859631647327e-06 3.99672842082305e-06 6.38437087687839e-06) 0
(2.48129238723307e-06 5.03524898227434e-06 6.47680587390321e-06) 0
(3.62117349271447e-07 7.41091524173019e-07 4.72777343974927e-06) 0
(5.38855371203884e-07 2.21023055750687e-06 8.52062516164393e-06) 0
(2.69370631770611e-06 3.36026929234206e-06 4.15527928690876e-06) 0
(3.32927537022751e-07 8.06894446760271e-07 7.24244526476104e-06) 0
(4.9254027447514e-08 2.1422158956903e-06 2.24959745699989e-06) 0
(1.64895382671032e-06 5.20033523023537e-06 7.29902292970666e-06) 0
(9.51008626141086e-07 1.36160193009248e-06 7.08482600639803e-06) 0
(5.48580212388519e-07 4.92464949138819e-06 7.16351975047383e-06) 0
(1.52924283128737e-07 5.06923081178568e-06 8.51266255481461e-06) 0
(6.10633628751405e-07 1.57166920396547e-06 4.47792998780196e-06) 0
(5.38140701171432e-07 7.54702035601776e-06 7.90283123522821e-06) 0
(8.52170900862124e-07 5.71524860524958e-06 6.94426803750981e-06) 0
(4.47057262071722e-06 4.7820090884113e-06 4.81840935994411e-06) 0
(4.44850099838288e-07 5.2836760442049e-06 5.69337763397238e-06) 0
(1.4723234133985e-06 2.01171671444138e-06 5.90448895699316e-06) 0
(1.60820651259952e-06 4.81553719130924e-06 6.35137906011943e-06) 0
(3.17394278393683e-06 4.43736600586474e-06 6.78053995695711e-06) 0
(3.03637604766193e-06 5.19908324103918e-06 6.35664259172652e-06) 0
(1.22887708819707e-06 2.31331820230757e-06 5.90437924577387e-06) 0
(2.24261468384741e-06 5.25610264711757e-06 5.62581699456006e-06) 0
(6.72533694597828e-07 8.63991725609251e-06 8.86896911162699e-06) 0
(1.36501607585929e-06 5.19722951311936e-06 5.51133362987121e-06) 0
(1.86481013241899e-06 5.10762683667558e-06 5.29225201320138e-06) 0
(2.23877637958251e-06 2.25397466243861e-06 4.70502308615744e-06) 0
(2.41648430964823e-06 2.49847923672828e-06 5.13932402356975e-06) 0
(1.07907673936563e-07 1.90370406975577e-06 3.48053704436735e-06) 0
(1.39091489230969e-06 5.99208556327335e-06 7.56760018429736e-06) 0
(7.14184255695525e-07 5.49514948651806e-06 8.91085342801608e-06) 0
(6.82213326031125e-07 8.09846242612743e-06 8.50514255413181e-06) 0
(2.1922762803575e-07 4.66889735466099e-06 5.81053465377059e-06) 0
(3.98348377013527e-07 5.24299392486668e-06 5.2705913754636e-06) 0
(1.47091334931096e-06 3.24402895176716e-06 5.58728910521703e-06) 0
(7.22522915364525e-07 2.15479947015448e-06 7.53767118855963e-06) 0
(1.01435159198195e-06 1.51078017071304e-06 7.88819482074816e-06) 0
(1.8492986039657e-06 2.11222174240559e-06 2.47581183912535e-06) 0
(1.72472094506189e-06 6.30944791689787e-06 7.5978288815409e-06) 0
(1.95214293683561e-06 5.5837690904597e-06 7.60742034952534e-06) 0
(1.92850783687126e-06 3.13430380258586e-06 5.55966013232238e-06) 0
(2.2236459810944e-06 4.79846722872878e-06 7.38529404996641e-06) 0
(1.09334453537871e-06 2.65800447739819e-06 3.40436782606291e-06) 0
(2.65914088631778e-06 4.29229199629191e-06 5.44784091625914e-06) 0
(6.53223536964553e-08 1.48055096325498e-06 5.2807752907731e-06) 0
(2.25813269310571e-08 1.97819209714341e-06 6.90808587847533e-06) 0
(1.69397327729948e-06 6.32950292598023e-06 8.16201127263591e-06) 0
(3.09443187842557e-07 7.67816165683536e-06 8.8302810128455e-06) 0
(4.03315900844911e-06 4.16598840994309e-06 5.91236365186939e-06) 0
(1.16961064554069e-07 3.64945399393392e-06 5.86543705975856e-06) 0
(1.95219674341521e-06 3.75379923505948e-06 4.87010017504906e-06) 0
(2.70841811239873e-07 3.02484143019699e-06 4.67310686047261e-06) 0
(3.45596166433904e-07 1.89433110085849e-06 4.49949917517587e-06) 0
(7.50851283375802e-07 8.02522687680408e-06 8.28165664167685e-06) 0
(2.62462219775403e-06 3.52445152666542e-06 4.6386414415498e-06) 0
(1.51216396639029e-06 6.16896024025433e-06 6.42525883952441e-06) 0
(1.13795970194124e-06 3.03885615677034e-06 5.48312460009646e-06) 0
(8.87461305337798e-07 2.90226200962332e-06 8.39604543597284e-06) 0
(8.2386233470805e-07 3.08178129485542e-06 5.989884264332e-06) 0
(5.99701443303804e-07 3.12925463421886e-06 3.27493258359207e-06) 0
(3.93440214821492e-07 2.28233587601503e-06 8.77228486878297e-06) 0
(1.05339912510942e-07 3.22457460623117e-06 4.4382721776206e-06) 0
(5.67621163258014e-07 4.35777857029981e-06 7.04139183824813e-06) 0
(6.16042370844561e-07 4.22811282105734e-06 7.77299551138356e-06) 0
(9.16585727502426e-07 1.19993386678042e-06 2.62690557600136e-06) 0
(1.59493907371058e-07 1.58956793681572e-06 6.95924292999646e-06) 0
(4.35186283139348e-07 3.8920771259245e-06 8.85476660815415e-06) 0
(1.04170667128562e-06 4.09024980286484e-06 8.24843915020315e-06) 0
(8.06274452535671e-07 3.6226781690735e-06 5.21417232259735e-06) 0
(1.44987493751236e-06 6.11002558820131e-06 6.46911573930259e-06) 0
(1.68851350396038e-06 2.36864823711814e-06 6.5900489541829e-06) 0
(8.1228477080769e-07 3.09858465789583e-06 3.12035489876086e-06) 0
(1.55908945107354e-06 2.95522429920625e-06 3.81421294722101e-06) 0
(8.33791688717014e-07 4.75821990203858e-06 5.0299511816274e-06) 0
(2.66472241805662e-07 3.67452560192694e-06 5.79350291694672e-06) 0
(1.15731615315099e-06 5.44343727517568e-06 6.09218190843432e-06) 0
(1.49318002697337e-06 5.28952594886276e-06 6.67301673953213e-06) 0
(3.10694905776034e-06 3.11400051003455e-06 6.45387123058095e-06) 0
(1.72684818535666e-06 4.7958006176694e-06 5.22745456934649e-06) 0
(6.43661997700029e-08 7.74129191085837e-07 3.13256855765991e-06) 0
(6.72911193420056e-08 3.67297540745737e-06 9.80590802007205e-06) 0
(1.12506602223098e-06 3.53231739298979e-06 7.70697349442292e-06) 0
(1.3053274750248e-06 5.29197633985019e-06 6.80399807620281e-06) 0
(1.19351130327328e-07 1.56549029601477e-06 2.70282941957772e-06) 0
(2.03046834810005e-06 5.38212107833159e-06 7.07292735389549e-06) 0
(1.48240249739757e-06 2.08085980732154e-06 8.11897476824168e-06) 0
(1.99983644286394e-07 6.42569420168682e-06 8.49413068624793e-06) 0
(2.20385902144406e-06 5.45174045201252e-06 7.4789704462882e-06) 0
(2.38754553180053e-06 3.27143630436824e-06 7.11154389977471e-06) 0
(1.62358745945317e-06 3.50604307709093e-06 8.2630829697735e-06) 0
(8.85245070968743e-08 2.68266979448997e-06 3.95892309782033e-06) 0
(2.94661541459188e-06 3.36340661217498e-06 4.70006752551917e-06) 0
(1.17220007303727e-06 6.50514989986116e-06 6.55992409643675e-06) 0
(8.78685054212038e-07 2.96409082221858e-06 5.52467367034074e-06) 0
(9.53171969631708e-07 3.26332536990508e-06 6.19752554807439e-06) 0
(3.21469595435884e-06 3.51024139875557e-06 3.81315559433551e-06) 0
(1.77925857655422e-06 6.74255299374378e-06 7.86274178280332e-06) 0
(9.06622929941072e-07 4.89260027689681e-06 7.25268899465966e-06) 0
(8.20567679393793e-07 3.03307898752054e-06 4.50826871835011e-06) 0
(6.30568690030202e-07 3.67111222327129e-06 6.22180768293543e-06) 0
(4.0943942123012e-06 4.24682996833118e-06 4.78351176061627e-06) 0
(2.69876456501326e-07 4.327793415522e-06 8.64275157532875e-06) 0
(1.02742494646948e-06 5.85134687686155e-06 6.50436712905977e-06) 0
(2.63365825268677e-06 4.07678040633494e-06 4.99325894584194e-06) 0
(2.08593212887324e-06 7.12751488126104e-06 7.17910245975522e-06) 0
(7.29550176274323e-07 2.32994111325361e-06 3.58505832895169e-06) 0
(1.38177300555464e-06 7.61434183819118e-06 8.28919563121014e-06) 0
(5.95279717595414e-07 5.05773086907285e-06 8.71400468173538e-06) 0
(7.0653731386761e-07 1.6279561752002e-06 8.06832925503491e-06) 0
(6.84208289322008e-07 2.82041620969956e-06 6.96355375532512e-06) 0
(4.83529503427729e-07 7.56417125681727e-06 8.13799759360238e-06) 0
(1.347755770046e-07 3.31986076658035e-06 6.87893334166942e-06) 0
(6.6276952758491e-07 4.79249093812273e-06 5.90978185690949e-06) 0
(1.88910612833594e-06 4.6927629095296e-06 8.09791895252742e-06) 0
(1.69139442014737e-06 6.29474912525845e-06 6.98047748131602e-06) 0
(3.35489628072756e-06 3.81803932569591e-06 6.11120349053008e-06) 0
(1.90869528689886e-06 4.65406820003873e-06 7.16730100866416e-06) 0
(8.26491274010603e-07 4.73080046534529e-06 8.02231137499041e-06) 0
(6.35499510148794e-07 3.11674325180649e-06 4.67440976450737e-06) 0
(1.9457039058519e-06 2.71324438269902e-06 7.20656214962281e-06) 0
(3.62873227066411e-06 4.21368555271085e-06 4.46355492599357e-06) 0
(1.92898997396211e-06 7.18319309428692e-06 7.44893060061129e-06) 0
(9.40167546758044e-07 2.87391418003674e-06 7.96148762678017e-06) 0
(1.25619854964306e-06 1.80566077800005e-06 8.46381296775565e-06) 0
(6.90247733940215e-07 3.37972333071773e-06 8.85076740164367e-06) 0
(1.34344001543543e-07 2.4758157206548e-06 3.59452042126529e-06) 0
(6.11044593457262e-07 3.82724455832326e-06 7.23871687090908e-06) 0
(3.20072990936691e-07 3.16490480428366e-06 6.06054269041016e-06) 0
(2.14923308351178e-07 6.83765696747885e-06 8.23132027281195e-06) 0
(1.43777022757485e-06 5.65154472494564e-06 6.69481246768628e-06) 0
(2.86970496653597e-06 6.23619925474264e-06 6.881746813847e-06) 0
(6.7150367915616e-08 3.01628126860582e-06 6.43943517199457e-06) 0
(4.13976588133398e-07 8.98056877822063e-06 9.00619169650574e-06) 0
(4.10481545376829e-06 5.00704443300805e-06 5.67744372958046e-06) 0
(3.95258390566207e-06 4.13236618541985e-06 5.74802092367245e-06) 0
(1.11982667020172e-09 4.8207294596966e-06 6.21321944619025e-06) 0
(1.12053269106449e-06 4.7140620499715e-06 8.00389837525236e-06) 0
(1.72893072030458e-06 3.84312751444107e-06 6.91720178825285e-06) 0
(8.69923178485745e-07 4.52988160199185e-06 8.55106797249553e-06) 0
(2.58494196419413e-06 5.33831764644372e-06 6.41148840713033e-06) 0
(9.92291593010997e-08 3.40652558045681e-06 7.15074598270236e-06) 0
(2.58587654060856e-06 4.28540181418763e-06 5.8185044498501e-06) 0
(1.68318282059117e-06 4.94610126439595e-06 6.76171242862774e-06) 0
(2.81059137222284e-06 4.30688701636312e-06 6.09314637215432e-06) 0
(3.65063785176805e-07 3.42869893221332e-06 6.68240212113622e-06) 0
(1.3487332961413e-06 1.76496534950228e-06 5.78510087146402e-06) 0
(2.55244062710497e-06 6.89768503546413e-06 7.29662287704611e-06) 0
(1.39257582460043e-06 2.73857936146328e-06 8.57973874744239e-06) 0
(3.27961746281762e-07 3.16799142157608e-06 4.4607157952297e-06) 0
(1.18286271958969e-06 1.8494983949288e-06 6.95217930159373e-06) 0
(9.55351159596507e-07 5.7010610390398e-06 6.60373785635302e-06) 0
(3.50002804175844e-07 5.69966401372707e-06 7.76431277011401e-06) 0
(1.68559283797739e-06 2.01030660925488e-06 3.47988332593205e-06) 0
(1.26200333605592e-06 2.79743981488466e-06 3.7717085530246e-06) 0
(6.86067689508025e-07 1.13285865471303e-06 5.7215159096946e-06) 0
(2.71411857324329e-06 3.82739078347436e-06 3.89198793474952e-06) 0
(3.32020185833004e-06 4.31654841019013e-06 4.46023765298568e-06) 0
(2.80264098988489e-06 5.40671393107385e-06 5.48507924049165e-06) 0
(3.83936497562605e-07 1.16853655145858e-06 7.07489767112735e-06) 0
(1.85037798435998e-06 3.21014583908431e-06 4.14153657191582e-06) 0
(5.86754294643601e-07 1.07950648624408e-06 4.76222818200514e-06) 0
(8.65377937350953e-07 4.62842791626509e-06 7.16868636813109e-06) 0
(1.05279317637651e-06 3.55847381028221e-06 7.19568210787921e-06) 0
(1.60527874980927e-06 3.15506822133441e-06 5.50951633583763e-06) 0
(1.36617645441218e-06 1.75333904506212e-06 3.63960261382703e-06) 0
(1.42088277769302e-06 4.61100669268829e-06 4.87997877357968e-06) 0
(1.62443505535405e-06 3.01203881674789e-06 7.18085907399983e-06) 0
(3.22472066446853e-07 5.40075230029851e-06 8.37631186543698e-06) 0
(1.88332934859117e-06 6.14608016448765e-06 6.79127144170254e-06) 0
(1.19443945494838e-06 1.99665417968697e-06 2.79304820612902e-06) 0
(1.70637989254084e-06 3.33836071228914e-06 5.65742207090176e-06) 0
(1.4580302600892e-06 1.67546742911281e-06 4.08783383552244e-06) 0
(2.14719427801439e-06 2.48377840672115e-06 2.67260340337119e-06) 0
(5.04887672678489e-07 2.15864240980745e-06 8.14149300521967e-06) 0
(1.90626882769989e-06 3.72754091666062e-06 6.89189814225054e-06) 0
(1.94173290905795e-07 1.58965625606545e-06 9.00870240302584e-06) 0
(2.35306964563087e-08 9.40844576718744e-06 9.48463804004939e-06) 0
(2.31056558592906e-06 5.7936805784585e-06 7.64188793571423e-06) 0
(2.69229654708441e-06 3.65736393419864e-06 5.69897166611002e-06) 0
(4.93826432604418e-07 5.5874428192376e-06 6.35061340092966e-06) 0
(1.68966070833287e-06 1.86996743997723e-06 2.4234012475973e-06) 0
(1.80179961499956e-06 4.60093503655614e-06 6.77842270232439e-06) 0
(8.22356437327851e-07 6.23018995036377e-06 7.78632815783452e-06) 0
(1.87017488767912e-06 2.74716259463583e-06 7.22525984436279e-06) 0
(1.78763603729275e-06 1.92325794480377e-06 7.05049773979551e-06) 0
(5.36534683071874e-07 5.70355041344266e-06 6.5692749209561e-06) 0
(1.81438545655688e-08 9.08827484647663e-07 7.94369177700366e-06) 0
(6.20824159905986e-08 6.30613015401247e-06 7.55273393907698e-06) 0
(2.37235045063757e-06 2.45387231731455e-06 7.07156308298609e-06) 0
(2.4458913972882e-06 3.86832992994592e-06 5.56546071189473e-06) 0
(3.16718832411045e-07 9.66963445015434e-07 1.7705431552533e-06) 0
(9.1070563400768e-07 1.67066625456984e-06 5.38095254706951e-06) 0
(5.28187981061503e-07 5.04590607876059e-06 6.82906140957146e-06) 0
(3.76640514152253e-07 5.4213287904969e-06 8.70128569565742e-06) 0
(2.1351245317911e-07 3.52767347075638e-07 8.03069500825577e-06) 0
(4.73289967317214e-09 2.41641894192863e-06 5.54761170999551e-06) 0
(1.26910042478402e-06 3.96397212405644e-06 4.8251193719979e-06) 0
(1.45005921900665e-06 4.01792164118859e-06 6.76761310960174e-06) 0
(1.14680495132157e-06 1.70493748373302e-06 2.06122352396497e-06) 0
(1.35660506867179e-07 4.92589117509281e-06 7.88946469220944e-06) 0
(3.62312261594138e-07 9.79139559254154e-07 3.67679072772612e-06) 0
(1.55865919825624e-06 5.40068557734751e-06 5.60132260772024e-06) 0
(2.04311562103365e-06 6.26117944760319e-06 7.94827557234937e-06) 0
(1.82954823951794e-06 4.1450075347859e-06 6.24752614958942e-06) 0
(2.92616607304351e-06 2.93132020498435e-06 4.83395693174172e-06) 0
(8.05638416068693e-07 1.57649764528296e-06 7.92633497937134e-06) 0
(8.42859679134573e-07 2.62914416267082e-06 6.3177185868558e-06) 0
(4.03639284598079e-08 5.3419012618745e-07 4.30620251154698e-06) 0
(1.50083791598821e-07 1.93551310744672e-06 2.66440923254967e-06) 0
(3.48153125392994e-07 4.65870505930633e-06 7.87887596259905e-06) 0
(1.48070725090774e-06 5.18505898041676e-06 6.53298090792193e-06) 0
(1.45074277363531e-06 2.4804045134659e-06 5.67798604914692e-06) 0
(1.50380486955809e-06 3.29282489257897e-06 3.79512837838563e-06) 0
(1.40074021330895e-06 3.558205966352e-06 3.56797919683009e-06) 0
(6.58319175546556e-07 1.13602357498531e-06 1.83194376560904e-06) 0
(9.65441309680966e-07 1.42945759848312e-06 8.71892952649523e-06) 0
(2.59262343997504e-06 2.66310568814456e-06 7.34619854939497e-06) 0
(1.82579910631944e-07 1.30487557758006e-06 6.34727858603082e-06) 0
(1.30237920127831e-06 5.99201081900267e-06 6.1730856004232e-06) 0
(3.32307602638688e-06 5.36435968957827e-06 5.58936219008304e-06) 0
(3.51974353848998e-07 1.4407435273054e-06 8.93360908613596e-06) 0
(1.32527382993279e-06 2.5672206291784e-06 4.7401569814876e-06) 0
(1.41271502758139e-06 2.85162329971298e-06 3.48090684235379e-06) 0
(1.38824291190986e-06 1.76547617526463e-06 7.07460867924066e-06) 0
(9.41162325069183e-07 2.44435582602117e-06 8.92159332017338e-06) 0
(2.68827763001644e-06 5.70101449368567e-06 7.23386595881612e-06) 0
(3.62138985661725e-06 4.95217363748223e-06 5.17411493128984e-06) 0
(1.17227958041441e-06 6.96024819302574e-06 7.07168633338577e-06) 0
(2.38381685603793e-06 6.99528302010217e-06 7.5647039681999e-06) 0
(3.26544444571985e-06 5.01094872541783e-06 6.48001411905204e-06) 0
(1.52889668317167e-06 5.2952979809737e-06 6.17387175074319e-06) 0
(7.73581411574789e-07 8.25089926307193e-06 8.73325770859736e-06) 0
(2.64563363002504e-06 4.9544798436393e-06 5.90245706223156e-06) 0
(6.57371227078532e-07 1.89495934860114e-06 7.27617109242091e-06) 0
(3.93200153736348e-07 1.9212463201958e-06 2.21084812048458e-06) 0
(3.73045692194918e-07 6.29947194791841e-06 7.39802548194694e-06) 0
(3.28879616350566e-07 8.50321085753816e-07 4.08009004944935e-06) 0
(1.13707048593451e-06 1.44857623307885e-06 7.90886561060397e-06) 0
(1.1051376143334e-06 6.0338410250324e-06 7.93606300949934e-06) 0
(1.37667236672595e-06 4.47437623003999e-06 6.42117505657872e-06) 0
(2.29740529333053e-07 3.11548459126309e-06 7.57619904961489e-06) 0
(2.17708075522207e-06 6.76619723891648e-06 6.95311317125963e-06) 0
(8.60954760206862e-07 3.63166915291467e-06 5.98250614783128e-06) 0
(2.78306844199552e-07 5.19706856495725e-06 8.80207108385401e-06) 0
(3.91386017158251e-07 2.36693344606307e-06 2.87480537784313e-06) 0
(1.46319990166482e-06 1.55666004607244e-06 6.47137757892583e-06) 0
(2.3729814939116e-06 4.83440638922955e-06 6.02684195615376e-06) 0
(7.14399804420403e-07 1.98899209162803e-06 4.40579082024186e-06) 0
(2.11241566218998e-07 1.3820477799865e-06 3.65976011155917e-06) 0
(1.15365969097139e-06 7.96510274397855e-06 8.79595428386983e-06) 0
(8.06001561247438e-07 1.7067106922253e-06 8.51498106931191e-06) 0
(8.52154556447129e-07 1.12218569884929e-06 2.65162939012482e-06) 0
(1.91873147844118e-06 2.50521396133886e-06 7.95228182662671e-06) 0
(2.10111654743752e-07 1.81413054126436e-06 7.37871840619873e-06) 0
(1.48833386693218e-06 3.03543085946602e-06 5.33540157822719e-06) 0
(1.95477348736635e-06 3.21212165620189e-06 7.66785545677806e-06) 0
(4.30191082094337e-06 4.91613184450644e-06 4.95468236938576e-06) 0
(4.93297031783921e-07 3.15367131914288e-06 6.12683735046522e-06) 0
(1.56073394516181e-07 8.01791880063281e-07 8.30859297127928e-06) 0
(4.87112308982685e-07 2.39742535718163e-06 3.94007437067478e-06) 0
(1.66137496417692e-06 2.97252543606644e-06 4.67800562969275e-06) 0
(2.70231834844363e-07 5.42921694770596e-06 7.89930136606094e-06) 0
(4.05831251584665e-08 7.16684229318128e-06 7.66036553435994e-06) 0
(2.01123920293327e-07 3.93278214394439e-06 8.54354939677332e-06) 0
(5.47916012460039e-07 2.70013065732e-06 6.29159380693059e-06) 0
(4.82784815919288e-07 3.56192086159201e-06 9.4910809712319e-06) 0
(2.53070666083888e-06 4.44612938461885e-06 7.14089798023368e-06) 0
(2.28132456082935e-06 6.58619971257487e-06 6.72864228448106e-06) 0
(9.93081612807334e-07 2.46511261915947e-06 5.74857172024869e-06) 0
(1.88600799681062e-06 2.38603285811958e-06 6.32243872253301e-06) 0
(2.93195571734424e-06 3.51265551674844e-06 4.02755614465311e-06) 0
(6.466873618138e-07 1.9455293913734e-06 3.55366894395393e-06) 0
(4.31607556618641e-07 1.30288287106806e-06 1.35519889119701e-06) 0
(2.15981545884901e-06 2.79255187910994e-06 5.1011989027506e-06) 0
(7.04296199764212e-07 7.69634266700121e-06 7.78239860360722e-06) 0
(3.03324253475967e-07 3.99707533549307e-07 6.91820417745214e-06) 0
(1.03944672024751e-06 3.75706761027557e-06 5.82179810493281e-06) 0
(2.07239028913625e-06 3.1342199727518e-06 6.76953587072935e-06) 0
(2.33187215324888e-06 2.57690304208298e-06 5.68899668175716e-06) 0
(9.46905704742989e-07 1.80554130414247e-06 5.2659526663302e-06) 0
(1.70585502871385e-06 7.35644846829699e-06 7.59237932842021e-06) 0
(6.32439411241332e-07 7.67420195585389e-06 9.30741694681222e-06) 0
(2.71995461356221e-06 6.77106179053213e-06 6.91239775229823e-06) 0
(9.75030762835498e-07 3.08908366359278e-06 8.74467285091333e-06) 0
(2.05779282353173e-07 3.75071869443451e-06 4.78939369207341e-06) 0
(1.61872988173057e-06 5.98472253388421e-06 7.55510131295649e-06) 0
(4.04465714274926e-06 4.28515350218289e-06 5.27681343126881e-06) 0
(3.40659946745614e-07 5.71816459225259e-06 8.53735483585025e-06) 0
(2.8927171719614e-07 5.09928133498949e-07 1.29659006306623e-06) 0
(2.82030718998163e-06 3.75844900492668e-06 6.02920523674021e-06) 0
(1.36689401721076e-06 1.97860609039436e-06 3.79047940948363e-06) 0
(2.32109929083212e-06 3.0007797906547e-06 4.73871987858558e-06) 0
(9.5912347860132e-08 2.91003239787168e-06 6.84193685797931e-06) 0
(8.04021383922855e-07 3.18678753019297e-06 3.53966703682444e-06) 0
(1.54523378369058e-06 2.12423375789283e-06 8.33406782781774e-06) 0
(3.47715696047626e-07 5.37348057686744e-06 6.29613663033132e-06) 0
(5.46595829576457e-07 2.37677338279001e-06 6.89358995175146e-06) 0
(2.83305089169373e-06 4.45085159052608e-06 5.10995350667811e-06) 0
(1.05548488966571e-06 2.30966996933075e-06 6.95766591702911e-06) 0
(5.85412277104887e-07 7.82405947039848e-07 2.85436162460932e-06) 0
(4.31606869892978e-07 8.38438656478555e-07 4.88405008387892e-06) 0
(2.94006427902564e-06 5.10840150019272e-06 6.47709392448666e-06) 0
(1.62421533511504e-06 2.59442763392181e-06 4.21790541180608e-06) 0
(9.35400565712339e-07 2.70872864195036e-06 3.94322462722199e-06) 0
(3.47804035746838e-06 4.03808145341019e-06 5.52694134579999e-06) 0
(1.71968690243334e-06 4.99583479571323e-06 7.35122970813416e-06) 0
(3.44535335113783e-08 2.75777908324155e-07 2.11910430977456e-06) 0
(5.70191767743342e-07 6.48569017866686e-06 7.71606887315111e-06) 0
(2.03945556395835e-06 5.46468885676072e-06 7.76461921885103e-06) 0
(9.26559054246976e-07 2.39575158860271e-06 6.79241057912639e-06) 0
(4.93453660387768e-07 8.43674472279874e-06 9.02789651580717e-06) 0
(3.00042051814824e-07 9.51645092350285e-06 9.58417468562436e-06) 0
(2.2329914426061e-06 4.76911537613495e-06 7.47203534862612e-06) 0
(6.07235826577401e-08 2.00691092840035e-07 9.76582334712303e-06) 0
(6.75209456616468e-07 9.10845066136728e-06 9.13006625428119e-06) 0
(6.00265982192436e-07 2.68558935728366e-06 8.71194068318635e-06) 0
(2.6418991207775e-07 4.4579192562612e-06 5.44922800942986e-06) 0
(1.58364160272313e-06 5.51525654755931e-06 5.64277916095161e-06) 0
(1.79459582684748e-06 4.92704053360852e-06 7.88308129459987e-06) 0
(4.09076610515182e-07 1.29318164650952e-06 1.92622221823823e-06) 0
(9.41939013792261e-07 3.70366133277122e-06 5.56197704704092e-06) 0
(9.95923399254419e-07 4.7549254414289e-06 5.1408590956135e-06) 0
(1.37494958064094e-06 2.58261517357292e-06 6.38429444850411e-06) 0
(2.10610632911452e-06 3.60563724266664e-06 7.20501253475311e-06) 0
(7.45420729127666e-08 4.60545504534819e-06 7.38662167899934e-06) 0
(1.00560050186006e-06 1.29341706509303e-06 7.01553713593038e-06) 0
(1.01243913773137e-06 8.54866806608259e-06 8.6959506336729e-06) 0
(1.3261081417191e-06 2.44402334722848e-06 4.67683665316427e-06) 0
(1.22234020929168e-06 5.30290680990513e-06 8.38690906653499e-06) 0
(3.15474224769488e-06 4.96588049793683e-06 5.84634951756467e-06) 0
(2.5498078254043e-06 6.23282241354593e-06 6.29060204482945e-06) 0
(1.20349860971784e-06 6.16478524794497e-06 7.62490150114081e-06) 0