/*--------------------------------*- C++ -*----------------------------------*\
| =========                 |                                                 |
| \\      /  F ield         | OpenFOAM: The Open Source CFD Toolbox           |
|  \\    /   O peration     | Version:  v1706                                 |
|   \\  /    A nd           | Web:      www.OpenFOAM.com                      |
|    \\/     M anipulation  |                                                 |
\*---------------------------------------------------------------------------*/
FoamFile
{
    version     2.0;
    format      ascii;
    class       vectorField;
    location    "0/lagrangian/dsmc";
    object      U;
}
// * * * * * * * * * * * * * * * * * * * * * * * * * * * * * * * * * * * * * //


9999
(
(48.5379542988913 -264.745298400621 -774.336464685977)
(-600.433477139843 1081.44646606043 137.126122888511)
(149.878721027693 1052.74097364494 256.938523874238)
(-520.234947157096 -103.562649166657 -107.098146038308)
(-98.539702634684 -1075.52634868976 780.07899265774)
(-76.7693273091763 -224.862235549306 -53.9788663880725)
(1561.04014670484 -222.300280673742 55.6734467226171)
(-470.020668038161 -512.78340667428 -1015.21073068809)
(726.89634854634 976.343380810402 -284.93154304519)
(87.0978977116864 8.35783868356929 -428.484017350863)
(219.244741497387 -780.966802749132 173.700798673718)
(12.1165585869806 941.129365426849 498.590353039673)
(235.278387767169 358.90324122295 577.140165931155)
(-1103.65285569274 608.009023184545 1280.21106347926)
(-652.436205754953 -683.168348063583 307.453183869947)
(419.991227900832 345.306003237325 -205.373924878212)
(498.729605887528 -74.3448382917965 -1183.44684479717)
(-164.557784581056 593.792009289188 154.569968672993)
(152.250111848694 -847.490608138688 -45.9619445296279)
(-768.932944423546 323.368591664947 -157.752427410797)
(-423.884960903768 385.184988509399 280.521229024093)
(1361.24800520101 -179.464634373928 -529.613745473578)
(183.190534139161 1050.11273884265 863.498696751683)
(303.614921871372 -168.118736887285 109.11523018214)
(-89.9149919521578 1025.94119930743 65.6338318730606)
(690.778148425875 -619.259179642629 469.493108907205)
(-563.68234213493 610.908488851086 -27.9908921402544)
(200.40153631419 546.430020990189 -418.688254973633)
(-164.675343078057 296.87819419035 -897.807847511966)
(196.216614805834 749.737222404808 1033.73498819367)
(-605.983504960704 57.034848380269 -448.80306710488)
(819.226681916268 1056.34786930039 291.522014590523)
(784.336417235751 -375.837370407249 835.584173597343)
(651.102253403725 686.656051968274 -233.428359565146)
(371.027082420234 -100.98894445924 -484.086333221883)
(-315.932688488163 -774.238657356047 251.64620622922)
(666.513592505857 -70.9988758200761 -253.206588983636)
(-975.165194151623 109.682670594993 10.7164397461039)
(21.6269426367789 733.723486407691 41.0072884749524)
(-319.058690829397 -291.7310015525 812.420986951275)
(163.406612761517 468.90064499506 522.232671587572)
(-1410.5372827188 455.579910163033 693.796328832787)
(591.316817508373 111.505698874548 -49.2112827951954)
(1095.7615979341 -661.267916770361 51.9804528747817)
(229.967442862304 -654.504940197983 573.650899422106)
(471.453960063605 238.609102916113 -409.021517243965)
(475.394036780475 157.055029861287 -209.56333797013)
(532.262651237471 1135.96400032251 -58.002757948977)
(1002.73658455372 244.743510796886 -667.447124236223)
(-538.316175979215 354.98293861066 -90.1537132890444)
(-937.030989700385 -343.495671467892 1197.09978823367)
(-431.882948453212 -1022.82135104389 1910.03476697654)
(401.211618841776 331.428064261818 914.80408083799)
(-792.179211990178 -581.316623543725 -54.1557423033471)
(56.7550154440105 87.4961501552676 -417.563456903203)
(218.24678990519 -208.563248397255 634.987795235316)
(194.077520255799 195.66616235105 -730.42645341179)
(142.037776435835 1502.44380358749 -56.208406383108)
(-317.006656976056 -286.671884086314 359.840671322787)
(-596.268936126652 -124.862760474924 336.500145022039)
(-229.908862357915 789.782912862028 -194.847854603272)
(-478.983555256398 614.169736544778 -675.18607888425)
(864.700118517793 966.792326577421 97.6688295606054)
(-326.852596922958 444.352849214694 723.939335563215)
(-117.402668369248 -375.705971735194 527.092867638519)
(641.757583354262 1522.91317319278 364.218451579611)
(-759.123777796641 718.451454409023 -586.998090301105)
(-179.087049057503 1166.26059788344 -169.511779937899)
(-516.742068010036 378.375596205179 367.203084324674)
(796.188568753585 691.544092233412 378.01665305635)
(31.4411966851977 441.384261112958 270.406422224212)
(1673.20748681741 -331.279625412195 -57.0098572052774)
(182.478126810971 87.708697219094 -1347.36184415969)
(-1279.90207895699 906.752124217917 -211.674557216852)
(-945.527581343544 -627.774813591082 713.454068238349)
(180.091197965869 19.5755328510147 350.407891585037)
(-497.727155896839 140.196884011664 -255.469355344082)
(503.521691362533 194.352182520275 -56.6022692572303)
(254.759640096449 -123.553525240277 570.059101682109)
(0.727391969487109 -619.049124423861 -573.04047556129)
(-964.622338149303 -74.5518489592503 -966.090961258472)
(65.5804138787293 -503.094697266556 265.573148648097)
(-650.072040406293 -248.377110779345 -721.320268128707)
(259.308276388672 -907.280759422032 -608.939771171771)
(-457.570076127128 -409.654860699597 779.82156867323)
(451.04480481174 -36.3310234557256 645.558399533343)
(-78.937245302463 613.945382037953 1150.4898491519)
(1018.50931257056 190.639441354475 -261.660131899801)
(-342.368735660398 -599.943066912329 1000.15238587782)
(151.902732752221 -98.9691599947472 -455.580984281619)
(821.189284863115 -1272.38981423508 505.955378558748)
(888.344533385885 507.608928948334 -473.270054146219)
(-155.677565711417 306.707683679301 -639.807523903722)
(-571.455104347994 285.762518837221 -148.245789095662)
(1017.72690641975 102.36138689962 538.457379594736)
(-7.78741601454676 544.703729142554 262.338071174855)
(47.3297409174676 -319.976253384801 312.489802550899)
(-482.368889897019 -707.922556531825 -361.318123897544)
(825.041864559212 -61.4714324752821 -745.967288216773)
(-832.346126682544 553.783656476122 484.846810788096)
(-1316.73267632324 -155.694495941773 -152.756220778779)
(55.2538372135039 135.359737795315 -439.750285970104)
(851.199696917423 -391.272873805716 564.655490126311)
(-377.551124422264 373.154439611394 -213.367677849522)
(-705.976360185943 1713.80062218662 172.158128869805)
(336.865097880391 -250.29971099529 -211.388754106742)
(147.53088306954 48.9921574253769 -821.607524319469)
(602.443888946578 1.68332576461163 -1048.2688960259)
(-450.298533889574 190.687774216566 323.940289551074)
(-1243.5446478695 1137.28256190842 -419.251122434737)
(-356.284283683398 -678.023810997342 320.457887702564)
(-777.093014985781 -236.343980744097 -93.7711001699711)
(276.781046036153 -87.0889507134377 -162.811764917601)
(1044.75208312964 21.6131758245039 31.5499269847965)
(-1061.08240073654 689.000688696287 959.964861217007)
(547.251525748406 -79.6748531093591 -355.384017057895)
(508.697386651902 179.951329503511 311.800653657553)
(92.4129975978728 -296.475101783504 835.786460725599)
(1061.87191468278 -104.464486250865 284.276770602623)
(-576.374031591435 225.40202501458 -538.900033514853)
(141.814771060353 307.298600432766 -676.549810559248)
(258.65395429694 -17.29141244944 -653.936888650124)
(-73.9298913633152 1143.51567877894 -521.713076855403)
(-561.787950207106 659.744218773504 -360.497097054868)
(694.55395062502 256.179881162872 -39.2439655746569)
(-858.314260390975 281.77510239073 1018.77838378835)
(-945.280712816513 -285.912022179825 26.1534623819035)
(946.387345733901 806.95053702299 242.787546616199)
(189.177527052856 -470.617670189523 164.36838070255)
(67.066609329339 -191.584197170983 -65.0137992489557)
(-684.926316308597 -1277.39319440024 1334.03511237775)
(622.837073851882 -12.5406836704946 -192.125572527583)
(8.36141409141235 -898.255292631144 -284.315067601239)
(83.120274325732 -268.30937173229 833.098041255728)
(-957.565386523987 175.704154949445 752.972357789019)
(596.694190890268 -1208.69640811162 1117.35472046543)
(238.397226147477 658.858832593969 -1042.74697924307)
(84.9501232371904 -700.807049390374 -345.998029611335)
(-278.779397183846 -131.469164773979 -4.52531940707603)
(-489.34153243233 -185.397009599129 -306.403605808434)
(-463.941990064951 -23.2171077498681 204.979882465595)
(757.601464353134 -245.694643554616 -655.064285885909)
(558.889378225248 -88.1047756108237 -195.113221349368)
(-25.8593753871308 -127.350641583605 563.01422001313)
(-278.74578871746 153.39402112689 27.0686313589257)
(-905.269952044957 -192.637793188526 -545.762698268024)
(136.917231592703 203.218800042046 201.817714549269)
(577.036217379308 -420.567831353822 -1071.5093921754)
(-446.054137812052 263.135395968191 -339.719175589954)
(-576.575561981057 -479.961452539587 1294.25413806041)
(13.8670874893878 -463.630569345378 440.272183880384)
(-320.434819719632 558.831397194547 -810.878133235595)
(-524.001283818493 133.251414634077 1027.75398122744)
(101.501475130209 -280.029361065972 156.060246723069)
(-878.811473041045 1192.76129937687 -561.843427097113)
(122.330106413914 -144.382887459263 -833.852470983601)
(207.627643968434 863.585293133918 361.9498104014)
(293.910628540358 640.567130859645 151.55261352217)
(-1195.36799907922 -374.441134404324 660.569038177383)
(-375.038701542683 -704.161630728942 -103.41106824748)
(-133.822861614933 162.077528250436 -226.896366744549)
(-170.791690903451 629.510050644099 279.297454254406)
(897.123942887247 708.709476837164 690.33142305122)
(-315.808966490264 -243.285020234972 433.979819591197)
(-616.059878042162 -266.311222073964 589.212128009209)
(-573.9340451262 -1009.03575282621 171.642531028836)
(-214.072419061335 433.477255714947 -109.004478358422)
(497.060374159083 657.122321459665 1025.28909123566)
(289.868248324935 688.355619221642 -793.339204690904)
(-66.5154332559142 -786.57577570241 -414.299012399363)
(-668.52234613982 488.830369873019 544.756361552538)
(157.440515988048 740.252501051136 955.74993779359)
(-96.8346689505494 -1262.1712855844 -162.474200054103)
(-342.059717496442 8.89482003801949 870.775459384688)
(-61.8720657942274 1295.15832316326 43.1275520728408)
(-255.715034709112 -427.162119252583 582.428724004297)
(637.431158703838 856.703181503147 -774.883902908779)
(-473.853021602288 137.33726479365 128.048466395206)
(383.075268727008 -42.3874642014247 854.103698624633)
(296.619912717505 321.875382777824 307.696928948397)
(-177.761345148696 -195.422484647353 -542.488477928822)
(-372.595501486294 261.324238181085 638.858249039634)
(328.805704634086 792.125789381057 823.339115841616)
(229.410845212012 -653.492624590684 -94.2422438511661)
(-705.979639112687 379.240677464858 166.688329345759)
(-500.067856968678 -449.379523334455 710.67501596594)
(812.407101109667 -497.885443581466 631.231362640907)
(-116.985159460304 536.104831445069 110.839210636308)
(528.879883152462 760.005462504797 84.7754706446043)
(1297.83639209513 744.185701778551 585.783151461153)
(101.706229957752 384.718992346269 579.643457751212)
(-676.253482580692 129.800544012744 -545.219230563919)
(103.112636484621 -656.276479278454 -904.493098492266)
(297.681961177111 -628.011839086056 1088.53613480872)
(349.863170522796 -128.157962476851 228.209255399378)
(-400.149131908691 -795.802404579616 631.732551822735)
(27.2704068144382 145.598869103977 -1177.46810985355)
(692.833857502129 -84.0755186363879 -204.516922379682)
(-194.969700571826 1518.02785597818 23.9692384315931)
(-239.670206646063 185.850886935201 -1242.11786625294)
(133.983861227178 699.959725396189 -22.3298280549009)
(192.684850923394 304.058165744852 -113.663450708392)
(-1140.51211343932 -275.697579228487 535.473072464258)
(258.662438980768 165.249110824377 221.421003350794)
(-82.8585418676342 -777.475433835061 -462.489923694527)
(-19.6008397741086 -1016.25607138374 665.58377406063)
(-864.790666274874 -611.107499375624 595.787550256372)
(141.729981028208 -447.647377911928 15.5424947721647)
(-586.533968739499 -4.78295903139469 -174.173430789892)
(513.337302188146 -847.56638753642 -179.919520462799)
(-198.335943816645 -473.187554734434 -907.100362423577)
(705.103343974845 557.741699859358 77.7043009728324)
(134.093798689917 -688.84108738083 -381.535946940996)
(-227.998286866334 -511.793465276611 601.392066164791)
(335.436735427226 918.969510618309 -379.066969115913)
(-1469.52624213192 -164.846930928946 478.007110679335)
(516.288325170856 -538.616660280386 -356.209998937511)
(227.459575645361 -151.406697479015 15.4126315697712)
(1021.80718686652 10.2443357751795 -85.2449919827063)
(114.3735657046 -941.572410928264 -346.27894161727)
(125.173555403185 623.304537475405 307.826334802143)
(655.87065619748 -166.29845981652 956.140772488149)
(-455.774092704323 -42.8973183860502 -51.6518648456087)
(-805.823813658035 73.7098829145902 -71.4831439415309)
(1403.21671365411 125.513149040489 -318.338057413038)
(-604.893655242524 274.569766277859 339.645182015988)
(0.19391740364781 -566.178530699044 -108.628587514718)
(1952.69503828303 -1140.94805906401 431.845276287712)
(743.539213551959 470.197822413497 16.118288216701)
(792.400870774505 -1075.73621508012 -956.705310839728)
(-133.384137753234 470.585004695147 -14.0449411385839)
(-98.6859318987068 -360.03369951413 -149.001298727664)
(309.397362488577 -183.181724067456 998.851064148539)
(636.119786756214 -481.882332430957 -1020.60332037898)
(272.616167879744 -144.695495542875 -1245.62939677218)
(-698.484353782707 -1539.03579059819 205.325703809653)
(-782.906615718728 -822.341495072774 -253.536693573686)
(-295.907544188512 792.853517670433 -762.013379967943)
(160.580250140719 -100.681194735028 -148.124946421613)
(-711.201844609765 -150.417648164436 -81.3192911370263)
(-536.655601216346 -711.16853569535 -751.936736930701)
(862.67691599727 -230.660568196194 862.29434086381)
(-1230.1529738782 250.054101081677 -174.728894033455)
(394.264877424327 -755.443009036149 1530.01727338008)
(-946.0090238106 -489.4758960083 -816.366959732724)
(617.74513535481 -1598.85877391314 854.897656596011)
(-1396.73389072639 -723.303044227107 -828.222331509121)
(39.3001702362851 -410.371789878046 -189.263990957507)
(-72.4252794085477 -74.7563069421513 624.410406230851)
(1116.77595871892 -331.838501673981 -293.861071356443)
(620.700151524861 986.401652956887 493.935893698442)
(-35.671201381263 -562.549760125475 -473.407398042484)
(-532.030758002809 -834.117349192429 12.0917429970647)
(-459.744815804066 -638.015910669519 -1422.13939517593)
(-1010.43539000456 -491.54205815991 759.962778380029)
(-256.747543779534 -995.269050821012 57.2110047913135)
(-86.2231689115137 -191.098384252425 273.228572200355)
(74.3789966562003 268.446825672187 152.831251945425)
(-538.076815470302 -251.167668702356 924.678693380178)
(918.013344057883 874.638602165588 -196.515138041617)
(-401.76045256967 334.804726067389 504.963223644387)
(659.508548475054 -594.160926221408 721.031754968137)
(-551.262015888431 -283.054663969415 -70.0713410497571)
(-269.323573120668 1078.92661497257 -26.4755058696735)
(955.904880489635 -66.0773901784041 -49.4711376660374)
(-242.354887961347 -486.76313985736 -412.061980376545)
(-109.589056816523 -460.677184549297 927.736066912437)
(542.580311271241 -242.090306613017 -219.280670925722)
(563.740636895561 238.659322943072 -241.448153583369)
(1850.15732496096 -194.561799970082 350.811467124227)
(209.696006080015 -240.376725348579 646.791669938327)
(315.006888614747 420.15143214423 -136.178459613165)
(-993.49762256635 885.091098820459 -318.604152757778)
(-1053.3843534318 603.613643370701 -428.250440300965)
(17.8249143822264 1255.68597024068 -493.297055607231)
(-516.845505073206 -548.297579878947 632.650630368143)
(293.333088621596 136.108412964681 -31.5999543957292)
(456.924321495738 1122.59816449417 -40.8882989274873)
(83.3516278350988 -405.028379559533 -55.416614747059)
(367.431011922893 564.238258652792 319.598127373715)
(1077.57612972574 -163.52637085626 -945.665931093488)
(-50.4679056814168 -982.546820943514 -260.494404560451)
(-161.696052855675 139.872651273362 -1461.83947588153)
(-1250.69685988714 1692.36101543216 -670.908502553822)
(-15.1526911593075 -650.836973089681 968.365004573246)
(180.906507793524 -718.446098922058 435.500209823538)
(835.080946302335 -495.693965476075 -883.207234075945)
(548.61679378674 750.832965940424 46.5744516707602)
(-837.631148452295 226.207284191202 94.5224318096252)
(-22.7989998253826 635.593120347151 723.715911891008)
(477.653935035759 1101.62443351203 556.36656945986)
(-673.775985650401 -1105.66808818533 -269.143539165597)
(335.231141741947 -1147.52131500904 -253.574379777864)
(-412.991863479861 482.908078096492 129.030915915337)
(675.731849148541 178.075893021271 -467.471350751912)
(1349.8296697557 233.100162300262 408.552860262439)
(516.688614505911 1175.47143047427 -427.516404877219)
(-464.078776489162 -390.911519190171 -335.223290416854)
(343.656806150639 939.765859421503 -19.4240528231779)
(-630.705241612399 -588.847746663464 -1825.37714732042)
(-828.778260579192 -804.609895419668 -184.562596762529)
(464.493303938366 -214.265631905878 -948.14871460532)
(-439.618482906043 -198.517997318032 571.819737566357)
(472.053103338593 496.591764318867 861.682208571094)
(-184.365284088711 679.737775623349 646.671188590526)
(-275.201674097498 -1334.19332650057 -324.615777158393)
(297.241842493915 24.9613174530307 1220.10452419427)
(-617.202430280951 379.978947574129 -772.432986426901)
(354.032612448357 -206.27904009505 -1067.90824990578)
(505.980170610089 326.813582727467 58.8224461516295)
(1204.06573316755 418.089601550032 398.943340574973)
(350.372715615342 -409.529189095604 -73.6151078400347)
(-76.6662839061498 -412.844584737157 1001.9655441438)
(772.528091312392 673.004374935987 -493.62999335147)
(159.413108344158 1972.10259813789 -57.4273622919984)
(-47.0564214892793 -81.6901331015813 1179.60667766785)
(-22.5615359588596 -336.10551959281 -483.124377511459)
(-1340.73318554591 693.113258439414 888.585783679622)
(-971.29206136208 1065.91375034307 -327.893747772461)
(1441.71714972862 1258.92733322886 47.8308794054626)
(-138.958307030658 -1083.25929604559 -1414.67193976321)
(-262.100651782126 1262.68176459912 568.894187078085)
(563.610013810186 521.460945478742 259.428688716955)
(-53.9362705287859 -541.253947929081 -303.518180699553)
(500.870212549477 289.126659869551 -926.253688757225)
(-718.707303465744 -422.363892787617 -1183.63635749822)
(735.486373378321 369.493645857395 319.603363820445)
(964.466514149813 -79.4524885037617 673.711284215231)
(-1136.67783512712 462.077553916988 -858.266015348432)
(-796.01457803244 -281.266123145248 60.607818264167)
(400.381712370901 257.78391852968 794.030748617014)
(-604.796673797565 -404.141165536979 826.299001349206)
(1617.78134562945 -308.74521015089 241.817340568286)
(96.5686506910195 -517.867992748408 -818.973964535284)
(264.560259681674 -95.8183982270831 51.1355940656926)
(1384.23471691928 729.058376408832 -71.8751574473754)
(1218.13434469618 -217.598981977829 361.213005634213)
(1452.21162789977 -498.911469396496 -507.354652174054)
(-795.437216542033 97.2799028790992 358.848382134555)
(-74.3253776009367 87.1979805612035 -720.94871824157)
(720.859583110865 332.39642041061 317.316731280302)
(-247.488035040161 836.275724620325 305.189659418956)
(930.044990421956 616.628512832862 51.5238340160271)
(-318.228855941462 926.645966842037 -1042.89839900826)
(-465.242286874906 -1359.56454039092 -389.771339369199)
(203.516393761592 -338.30569157995 141.848779223275)
(266.242200720385 525.191879637571 -768.516972759912)
(200.145037996599 -257.875809952755 -274.176703513401)
(-195.998096347754 642.036596285873 -437.031381725838)
(-148.154642702042 640.617694949393 1156.66147978821)
(-544.825446199237 -251.577282201758 -1290.79641178214)
(-95.5218923529532 257.536252162385 -454.872173404029)
(-327.259354911243 68.2210366043425 -919.671092301292)
(117.006871851376 1382.04925327234 268.039605666777)
(-1125.64186370519 1383.98350970881 192.776099717485)
(507.505220356647 -248.483113907057 -509.436150003666)
(726.750410048612 10.4888875538583 -815.894025536571)
(572.241003027556 767.18081816857 670.355194255376)
(-432.086568065204 940.459215490957 399.681232594558)
(356.422057353824 -664.368841526678 660.209234643794)
(-120.287970615801 -604.137564319179 -578.091665247406)
(858.886602468472 -569.622121042404 639.077983445383)
(-127.558578218208 -1021.35367552715 -703.96285871453)
(1391.39200328865 -573.358022343299 74.192690492006)
(-287.063645428605 -64.9876171523207 1378.47838829666)
(564.204080117497 -180.66688064251 1113.07497111449)
(-419.649647208605 -1147.85321328272 99.5958428611126)
(-275.58418640076 -125.510591381975 -864.133372670853)
(634.645475985346 93.3231433662398 212.087799345217)
(568.029415574508 -81.6819352660169 -242.22552552565)
(-50.185026613084 -62.2316679771383 -332.740977314593)
(-441.36801184305 -501.366835854113 184.362784313165)
(106.786071746422 -526.369205021392 185.592191483224)
(651.684273631869 -632.511683411485 1496.82229136155)
(90.936709305409 -355.408460388431 -550.154050017091)
(-576.031749823049 789.74189597544 -1117.33867450033)
(-318.269581866994 1323.67131532457 1334.82424016021)
(-412.078264866003 -602.253504452765 1179.19323276854)
(-315.118808483188 805.284660153078 -393.687036616058)
(948.007990527315 332.078503199457 -560.745308125418)
(-426.048746205957 -40.0921987203924 -867.677517748939)
(253.826190402157 88.7049995261037 341.989646757953)
(-868.159949318961 -30.1926136769851 -1302.29727090645)
(-128.970140111343 652.143843969051 -75.9685259410716)
(83.2594086520642 -266.674211596974 -349.435902516668)
(151.450627452632 127.170541785484 135.728106564402)
(-953.723095448646 -520.050989071302 -62.679728510855)
(-1109.00939771957 121.707381065919 59.8333221331799)
(294.763275822296 -14.5727779842107 -3.28120389528126)
(47.4941717891352 99.0467725365133 67.4777704056594)
(-514.073571513116 346.056720513158 -1086.58052895255)
(-608.058336778482 -616.741125319242 549.183774325353)
(-1355.68155433317 524.31620198766 366.1462628095)
(-735.266388430265 -1020.79920440889 378.635621437246)
(691.801072669715 144.48587632736 822.754815729645)
(612.03045505885 516.105489431544 1587.41951857972)
(-931.03921390646 -324.499629784296 265.323524798843)
(-279.394906241736 -573.486445458069 474.158894359786)
(459.315687469216 822.62676842177 487.256636567617)
(-1419.33301589661 22.6140051834261 -45.0803494716559)
(-458.497410237056 816.185807452994 -32.0369049113569)
(-1040.16655485881 579.81587138235 -1210.12384708322)
(724.606178518726 -282.601468950881 670.762271130761)
(-843.741177783564 -69.1073076855744 -323.656604168283)
(318.592971417376 -864.10296932609 363.351434066283)
(-1200.72202300899 1183.66551511435 -536.422158514843)
(490.537166316392 -375.602064535511 -964.391925565614)
(-568.002331389255 -81.2267269796062 198.871874655737)
(112.107546303686 728.902734627956 891.406529122942)
(1454.32899109249 1454.24468466672 907.862893862995)
(23.4033666850614 554.136783685228 -1460.57178807264)
(-347.777954412637 -114.090826672845 -680.423501851722)
(664.082535150216 -241.375877067856 512.004629898401)
(584.240357464139 313.765706158991 458.084249992514)
(-1085.01364829164 -510.660863146752 498.884711944335)
(-448.096694361367 46.9126410598661 880.441931180537)
(366.974963815398 -522.398205599898 1403.4271818401)
(1135.74480539145 891.559783982852 60.1380471879531)
(-152.153970602116 -677.510336464668 -406.661248246134)
(-306.599211196611 889.595823670567 -41.0792090044652)
(762.304690134059 877.861250659071 -214.427635079002)
(-62.8261853937916 473.223390220899 314.072539789288)
(743.702635678652 824.905297136806 -226.333099233667)
(-1006.45447894854 539.222162832927 -417.11764679588)
(-938.122419596274 629.028498636053 386.765748284305)
(144.234557707331 471.134473925224 -294.555261662121)
(-527.827979688078 543.206590221476 -983.080815816532)
(160.900916948155 -203.14558481684 -654.792062436549)
(-90.2717938112828 179.463639371405 -123.67129076332)
(-754.830561236009 228.276538282584 473.079035116958)
(-534.827612896808 270.143556619695 665.356651662592)
(-1048.14747281633 985.177373831118 -305.876511128459)
(-630.049884556735 -113.724712117483 257.370857134514)
(602.112073880743 202.754606787208 190.622549428663)
(-89.4106146369158 476.800243986259 -759.635149101295)
(374.093809173878 -113.429509077196 212.784453010651)
(-227.954676913334 402.421105446453 519.037622265679)
(847.196933413959 -407.488407651199 495.959543211692)
(-1468.03370525443 -350.202748177917 -655.958798112864)
(-15.3260767771391 -71.9078626273981 -626.387383107882)
(-690.52297712194 -1084.52114718903 -785.9735717861)
(675.818899351207 -321.747321764768 -347.22151219447)
(-364.203979656491 205.301172722924 -432.544020048411)
(445.476393706544 -265.362002761898 1135.12963926689)
(131.409374497706 115.756648146912 -12.0590113441305)
(-835.374038962796 -1001.68901051674 817.343590215522)
(-57.6820690016865 1387.10388778672 -17.2544612539443)
(-100.544219750454 -637.459851277718 -1070.76457673764)
(-372.904197668398 360.270047165839 527.097763798238)
(-806.683719069708 -618.307366927257 -2079.98029963702)
(510.515582969879 -348.422788432471 1299.73298228626)
(155.890072630912 923.198771313805 429.720761500477)
(-670.135634499833 -764.887973548418 952.211487394)
(744.114742133637 620.756518350451 113.507750250644)
(-54.7691665010724 -1040.9010486691 -21.0143156721948)
(444.951935367738 352.98545485903 1126.76889835295)
(-949.723599212715 40.4008673706538 602.753970302013)
(-145.932275916543 424.305840165891 -73.7865868236564)
(-251.667281060101 692.832642932603 233.891197916582)
(-681.520604514896 372.887699973902 -579.942123660986)
(-683.282497067098 -14.1058607719908 62.4341660718498)
(-245.222596885331 -979.138449566833 -886.51929079161)
(39.2927966328707 -654.32558504583 -235.844529174276)
(-636.855451131971 797.384882876511 1100.89006279776)
(1302.50801930657 589.804898781376 -1389.47884011827)
(317.224523645684 -395.71239056522 343.410474967671)
(820.370723128808 -268.199389271522 528.89059963342)
(-407.651305554085 -350.071392510548 791.978984596326)
(-1244.88610190449 -160.205605430201 -1378.48361478959)
(801.728912295695 575.381345288558 79.2431578233061)
(-157.175873958564 -150.07463213405 -755.989914269628)
(-249.300906765095 -714.612855816325 -421.453670856831)
(1640.55594442949 832.890738904502 -0.145404842110142)
(-826.169977034769 -356.934483447137 -471.012708193566)
(-780.319160650237 -548.503504799468 -677.500125393109)
(450.179908842296 83.1646093780665 -389.863499351429)
(598.520037726609 -641.454087496407 651.523148649528)
(-832.277695513122 -276.691543110116 504.595028544909)
(-811.975749774427 403.49222240911 261.990969169867)
(830.502998185863 767.682703769645 327.06558969826)
(-150.770873103696 287.185083195581 -913.846995818633)
(52.0297153868685 -177.162630866127 295.733911549649)
(-374.052018986613 521.865495926734 -301.25574191432)
(74.5103510071276 42.6759806883067 -1567.49503883949)
(633.181953123947 609.084969685351 -35.5304931133378)
(-737.47591414755 738.120112765227 932.575799622475)
(144.068214879434 -724.436544386293 673.841298106309)
(907.586873556762 -66.1024977670916 262.621961687756)
(-276.358110873324 713.049601349467 -360.213661983383)
(390.573750942279 966.150229015307 -647.177550138711)
(411.97063053528 513.136251597685 -205.036198195974)
(-211.113418798546 -297.90409265352 -641.152261380283)
(-1563.28100416363 -203.397081952625 -126.06967764014)
(-147.100202399602 420.889592598322 -1092.66227187838)
(444.167789888556 943.666641153545 -187.062462589471)
(-420.461941682739 245.968017845677 -101.800080797409)
(40.772987418661 619.608788422889 167.011610209638)
(-951.896018750624 -1373.77496371226 1545.15582773307)
(231.028774535995 407.147711441468 914.331149475369)
(478.987919718335 170.570563854273 -1127.99791198068)
(-163.354884094919 -539.057921877558 629.421442163518)
(540.435526901924 -249.218265938027 388.759036236721)
(205.17341914985 447.491816686059 1061.43320804197)
(108.363715015599 104.094800261654 -617.656618900796)
(1665.31118830034 -145.05249672841 581.76445897886)
(270.740418856513 -65.7816366634503 -16.7825380216076)
(995.932848169201 283.855437209601 -141.763700850995)
(173.409956447365 1473.72232668197 -115.419178782501)
(-189.074133141825 175.066728673787 -583.889359379741)
(-619.515008162234 -560.710316643748 848.861273101284)
(1173.25790335175 1232.04082594098 -432.554998511788)
(-380.860196729374 -766.886702746049 -65.8863224081631)
(-520.345025592982 187.774860216364 862.489723960002)
(-885.175676465207 291.126541131802 159.449379557361)
(916.364011960636 -374.937774015044 862.959379695633)
(-230.901802434341 1832.42303179124 402.663085934019)
(26.3908317917623 666.300760056496 -486.496256392321)
(515.429212395789 -580.650677545975 -18.0609923911031)
(-806.122673581456 1211.94240777691 -708.586719973912)
(124.624654361751 139.950489085806 -445.703911899799)
(989.747065274328 -140.433158103384 1080.23210993621)
(580.885775277752 -701.050770279461 254.47911952768)
(416.053459695892 -492.587707953843 -616.549768202082)
(-339.663515904704 64.4623509872308 -127.083264106351)
(-1261.35963944307 597.638267573891 -328.707770291813)
(435.202791449917 -359.381013748587 375.008648447023)
(127.710534462845 493.701760847617 -198.410488325678)
(-362.072760402344 -573.293085680746 1082.81619814083)
(174.910343829534 -250.928929264396 720.385133154219)
(-853.82411824603 -1207.71346311151 162.265896070918)
(-766.899972788242 -758.736796105413 224.427446513862)
(-702.399398904339 1337.48446415962 -1377.04925650429)
(931.165167593432 493.705893402699 -397.451192838748)
(-192.45883763253 -275.204873153596 -1072.81635364655)
(334.318414389436 -590.003334718762 -373.414488184012)
(477.542495735511 -881.740769900484 278.453120914108)
(211.022761385821 853.049614570415 -291.859310245052)
(1123.87970141144 -200.89251274826 281.9368935026)
(176.087687590506 740.057702126931 -990.083836300839)