/*--------------------------------*- C++ -*----------------------------------*\
| =========                 |                                                 |
| \\      /  F ield         | OpenFOAM: The Open Source CFD Toolbox           |
|  \\    /   O peration     | Version:  v1706                                 |
|   \\  /    A nd           | Web:      www.OpenFOAM.org                      |
|    \\/     M anipulation  |                                                 |
\*---------------------------------------------------------------------------*/
FoamFile
{
    version     2.0;
    format      ascii;
    class       dictionary;
    location    "system";
    object      boundariesDict;
}
// * * * * * * * * * * * * * * * * * * * * * * * * * * * * * * * * * * * * * //

dsmcPatchBoundaries
(
     boundary
     {
         patchBoundaryProperties
         {
             patchName    fixedWalls;
         }
 
         boundaryModel    dsmcSpecularWallPatch;
 
         dsmcSpecularWallPatchProperties
         {}
     }
);

dsmcCyclicBoundaries
(
);


dsmcGeneralBoundaries
(
);

// ************************************************************************* //
