/*--------------------------------*- C++ -*----------------------------------*\
| =========                 |                                                 |
| \\      /  F ield         | OpenFOAM: The Open Source CFD Toolbox           |
|  \\    /   O peration     | Version:  v1706                                 |
|   \\  /    A nd           | Web:      www.OpenFOAM.org                      |
|    \\/     M anipulation  |                                                 |
\*---------------------------------------------------------------------------*/
FoamFile
{
    version     2.0;
    format      ascii;
    class       dictionary;
    location    "system";
    object      fieldPropertiesDict;
}
// * * * * * * * * * * * * * * * * * * * * * * * * * * * * * * * * * * * * * //

dsmcFields
(
     field
     {
        fieldModel          	dsmcVolFields;

        timeProperties
        {
            timeOption          write;
 	          resetAtOutput	      on;
        }

        dsmcVolFieldsProperties
        {
            fieldName           N2;
            typeIds             (N2);
        }
     }
     
     field
     {
        fieldModel          	dsmcVolFields;

        timeProperties
        {
            timeOption          write;
 	          resetAtOutput	      on;
        }

        dsmcVolFieldsProperties
        {
            fieldName           O2;
            typeIds             (O2);
        }
     }
     
     field
     {
        fieldModel          	dsmcVolFields;

        timeProperties
        {
            timeOption          write;
 	          resetAtOutput	      on;
        }

        dsmcVolFieldsProperties
        {
            fieldName           NO;
            typeIds             (NO);
        }
     }
     
     field
     {
        fieldModel          	dsmcVolFields;

        timeProperties
        {
            timeOption          write;
 	          resetAtOutput	      on;
        }

        dsmcVolFieldsProperties
        {
            fieldName           N;
            typeIds             (N);
        }
     }
     
     field
     {
        fieldModel          	dsmcVolFields;

        timeProperties
        {
            timeOption          write;
 	          resetAtOutput	      on;
        }

        dsmcVolFieldsProperties
        {
            fieldName           O;
            typeIds             (O);
        }
     }
     
   field
   {
      fieldModel          	dsmcVolFields;

      timeProperties
      {
          timeOption          write;
          resetAtOutput	      on;
      }

      dsmcVolFieldsProperties
      {
          fieldName           mixture;
          typeIds             (N2 O2 NO N O);
      }
   }
     
);
     
     
