/*--------------------------------*- C++ -*----------------------------------*\
| =========                 |                                                 |
| \\      /  F ield         | OpenFOAM: The Open Source CFD Toolbox           |
|  \\    /   O peration     | Version:  v1706                                 |
|   \\  /    A nd           | Web:      www.OpenFOAM.com                      |
|    \\/     M anipulation  |                                                 |
\*---------------------------------------------------------------------------*/
FoamFile
{
    version     2.0;
    format      ascii;
    class       scalarField;
    location    "0/lagrangian/dsmc";
    object      ERot;
}
// * * * * * * * * * * * * * * * * * * * * * * * * * * * * * * * * * * * * * //


100001
(
6.5267134556499e-19
7.7839360999931e-19
3.03358454355636e-20
2.86518932736681e-19
1.5061681533798e-19
1.87157395962895e-19
3.33209934463754e-20
4.71298425518164e-20
1.26646010299579e-19
1.61884113791675e-19
1.18494723979118e-19
5.52474019617556e-20
2.6732830458955e-19
1.77140011303059e-19
1.28502335188543e-19
5.92988422037128e-19
6.48898224883004e-21
3.52871788251085e-19
4.98991344011442e-19
1.07416708196645e-19
4.51940562163161e-20
9.415109262982e-20
1.91272500584556e-19
9.10971327645868e-20
1.8122981384641e-20
8.30174793973834e-20
2.89913206341678e-19
2.42330521841434e-19
6.82810189317354e-19
4.16137919359725e-19
2.2258198315648e-20
3.03034125470692e-19
7.30752716009058e-20
3.04777681150286e-20
1.99899318043261e-20
9.66169737841205e-20
7.11110324029634e-20
2.02412431393698e-19
6.11532748704676e-20
7.47751031740215e-20
2.30174922489329e-19
3.8560219781698e-19
1.67877608212622e-19
2.95130876942259e-19
3.24996693801761e-20
3.57112583871729e-19
6.91195628627192e-20
7.5376766518088e-20
2.78954447670095e-19
3.61722835168001e-19
4.89723939740977e-19
2.53277875926455e-20
3.10245101955848e-21
5.37035300042736e-19
2.06296343920527e-19
1.55069824857165e-19
2.04020407295366e-19
2.92300591311588e-19
1.80001261136208e-19
1.62845631821523e-19
7.84280335431047e-21
3.14387061088715e-19
5.02027747843308e-21
1.29070905913492e-19
5.94252481060993e-20
2.19243190971515e-19
1.16527312902114e-18
3.7211415529928e-20
2.35551886516005e-19
8.3276443773248e-21
2.57641585513569e-19
4.3214291575685e-19
9.38261161860299e-20
1.11639232760183e-19
7.79883030128473e-20
4.69770068561263e-19
7.0764527803159e-20
4.19117862139642e-19
2.19673152688816e-19
2.78441339975214e-19
6.8340779537653e-20
1.18791966031853e-20
1.39582874536406e-19
1.80017203441394e-19
1.67615301280069e-19
4.1187863183333e-19
1.29321174428668e-18
1.18393202948488e-20
4.06239977300668e-20
1.70717064506019e-20
3.09751984896001e-19
2.46358688749302e-19
2.86947443341913e-19
1.97977584045213e-19
2.38482178202831e-20
2.92718834554363e-20
5.1802073309915e-19
4.50972218637377e-19
8.88939133638856e-19
2.4054300877235e-19
7.23139933158345e-19
2.98884794551379e-19
3.16069578970766e-19
3.37011923160405e-20
5.49565998751327e-20
1.0659247458378e-19
5.49926444456e-19
5.25831077696232e-19
1.05234463320485e-19
2.79331388869233e-20
2.54533510310176e-19
5.19079237308598e-19
3.41030881830547e-19
1.28642546345858e-19
2.19931895627869e-20
4.26292719051196e-19
3.23292795703816e-20
2.58539762057372e-19
6.69886386016008e-20
3.59170863733833e-19
5.20891153605847e-19
3.26799647783132e-20
6.44957620780158e-20
4.09002131975156e-19
3.26959256787621e-19
3.33071309400565e-20
1.92539151852759e-20
1.32152273049576e-19
2.45906991366436e-19
4.65529603648439e-19
6.88898901208504e-19
5.36912655063197e-20
2.75668899514244e-20
4.19748041371566e-19
3.34081545125314e-19
2.91801050768699e-19
1.26884474508739e-19
4.32923274445701e-19
9.68867043398951e-20
5.38598821198468e-20
6.71956503013568e-19
6.86427035711997e-20
2.01779981513147e-19
5.05808939911681e-19
3.67327625237023e-19
8.19593570588667e-20
4.42398745233628e-20
6.10822669639222e-20
2.94143135493743e-19
3.55673400577493e-19
1.07751102356832e-19
1.57115368201277e-19
5.02851002433554e-19
1.08699505487134e-19
4.11106048456398e-20
1.32467348268803e-19
1.59999562305099e-19
1.98751491686676e-19
2.03020941828942e-19
1.24375187067548e-20
1.1189587850329e-19
7.65826478462348e-19
2.19127980237134e-19
9.42177246200256e-20
1.19417513596724e-19
3.43649355420867e-20
9.01472207516336e-20
6.39465790387351e-20
1.20817999672489e-19
6.33929130261304e-20
6.43151560708706e-20
4.03843259978461e-19
5.18241921674783e-20
1.41839260450218e-19
9.62996868165834e-20
3.76019896520597e-20
2.84431769154994e-19
1.41126562643475e-19
1.27828202270616e-19
3.20606165164783e-20
2.92207116485173e-19
2.60220728869123e-19
5.02728303204202e-19
1.55016355150633e-19
3.18499806822921e-19
1.11731170144303e-19
1.16858361487376e-19
4.14086472508801e-20
6.45347877757935e-20
6.39383341725332e-19
1.95736789904703e-19
1.19219723490188e-19
3.79672971418546e-20
3.29531409812336e-20
1.35571802630158e-19
7.08682419845233e-20
4.12984353331224e-19
6.65293096498351e-20
1.61718095651439e-20
7.23388756376786e-19
1.98962412552978e-19
1.29230046384579e-19
2.882699241865e-19
4.01340899296007e-20
7.13616224326989e-20
3.70977327202218e-19
1.05409769389975e-20
5.15038155977814e-20
1.80076986909042e-19
6.70525064514204e-19
2.96166254530635e-19
1.45989800442326e-19
7.72954567139372e-20
6.11033015736772e-19
6.4319201179047e-20
1.48065296839742e-21
1.93967579777873e-19
1.29987252853419e-19
4.29452249854416e-20
6.99834376588196e-19
5.17737296539875e-20
6.44527457461309e-20
1.9341131128323e-19
6.95236279388337e-19
5.98382758761058e-19
2.43236190659436e-21
1.75851423969144e-20
5.65637836444836e-20
1.18153415310743e-19
3.81343431974031e-19
1.77827462317772e-19
3.11893695821748e-19
2.22194959807728e-19
2.67795310132598e-19
4.45174890842173e-19
1.24214083470499e-19
2.22332675927637e-19
1.26506407441162e-19
1.73800400085619e-19
2.88124088254962e-19
3.74969919930665e-19
3.75423261693342e-19
8.91576879596427e-20
8.94411838341603e-19
7.04033679071048e-20
2.9926469614418e-19
8.8716316217434e-20
1.40597970085206e-20
4.93898480558999e-20
5.17416117549977e-19
3.8551130480088e-19
2.71717998233853e-19
6.01294247395738e-20
1.86820259668255e-19
2.13980602353755e-19
3.79453487309228e-19
5.32837570444878e-20
9.15200384157226e-20
2.27744599859439e-19
1.45258079890265e-19
3.18418067525656e-20
3.61054351310498e-19
7.66589382695016e-20
8.6038775164137e-19
4.8819529268033e-22
2.34393853370982e-20
1.66690145390302e-19
3.44861150452545e-20
1.36314561865445e-19
2.16180899751861e-20
2.52444547055626e-19
3.8764196158494e-19
1.03283822042353e-20
1.24561594520605e-20
1.49149593580376e-19
2.74679036408526e-20
4.78132194970275e-19
9.17539132130655e-20
9.24002325841189e-20
5.97455385081282e-19
1.63388387007288e-19
2.00479144154671e-19
3.75451829512392e-20
3.46012499388166e-20
2.8023989482307e-19
9.76111425358808e-20
6.45241341399629e-20
3.21133380189492e-19
1.06799309986775e-19
1.25873819738707e-19
1.81789918784955e-19
3.21073427717795e-20
2.88800812873232e-19
2.94476107791177e-19
3.95595634263756e-19
8.84589976468664e-19
4.81521006461082e-19
3.42573804482359e-20
2.79723155853876e-19
7.46557135941737e-20
9.9347638260231e-20
3.77211901237768e-19
2.68150444777884e-19
4.79162217627027e-19
9.74663897459617e-20
4.24114789073071e-19
1.76004743964565e-20
1.74707521170488e-20
3.05193737846719e-19
1.50046098426016e-19
2.69623920122918e-19
4.59458125640964e-19
1.40688588572174e-20
1.44879762885499e-19
6.58401635681692e-19
4.01334882038423e-19
1.2092234448583e-20
7.89678167706393e-20
5.79327179407999e-20
3.0465649888906e-19
1.66556719836628e-19
1.73206895006693e-19
2.63928350417484e-19
2.88630517073363e-20
5.10436905489067e-19
1.62753695759878e-19
2.75789280362766e-20
3.77525790290954e-19
2.62451899256628e-20
1.97545747859405e-20
4.0856503130452e-20
1.27467998858194e-19
9.06324398146306e-20
1.79808006894395e-19
1.80824565171429e-20
8.71649833992454e-20
1.43178324970676e-19
1.11364228402587e-20
1.75473040767516e-19
2.35221764841175e-19
4.78995092928456e-19
4.90127242921821e-19
1.14098506058294e-19
5.32619882171566e-20
1.27606757219869e-19
1.84242751425017e-19
1.32371182568237e-20
9.11710610943071e-20
8.09223653052938e-20
1.41135023144588e-18
1.8280058180812e-19
1.73830616326434e-20
1.19553857785997e-19
1.8074618662546e-19
1.61965184036398e-19
5.96608145204538e-20
3.85087094313299e-19
1.48623884031556e-20
4.19695888614185e-20
2.53645188581699e-19
1.96002885932644e-19
1.35764016438363e-19
2.61475483642834e-19
6.99425638604124e-20
1.17771257861386e-19
1.02115079398464e-19
1.73850719155573e-19
4.11588271995385e-20
4.44509877473949e-20
7.46809278633031e-21
6.46988034679687e-21
1.70943227653662e-19
1.87239987755162e-20
1.7831410999245e-20
5.92868042284697e-19
4.60137858980382e-19
2.37331218392094e-19
2.48097527029597e-19
5.76978075469222e-20
7.34757630946864e-20
7.16533163906179e-20
2.95450475749905e-19
3.30841479321792e-19
4.88668434370573e-21
5.72731519400653e-19
4.56988396833812e-19
3.30019151670914e-20
1.03172387298866e-18
3.42125813253968e-19
2.48144146541412e-19
3.19979354615277e-20
2.00525248264035e-19
7.59919720400505e-20
1.59515677030316e-19
1.85756948292674e-20
2.4351702360548e-19
5.43483196982324e-19
3.1966296137758e-19
2.8725042971909e-19
1.29871487283365e-19
2.82340714089031e-19
3.38731947582858e-19
1.84869946647459e-19
2.38280161485908e-19
1.94357698490448e-19
2.92802916813594e-20
1.93413225741425e-19
3.12123561637479e-19
2.71586313793887e-19
4.4072688182701e-20
2.36997744344121e-19
5.60427809716066e-19
3.5059500908392e-20
5.77157690460531e-19
7.52072577805891e-20
5.03655962999387e-20
5.69004217653631e-20
1.45357298872042e-19
4.88708129204004e-19
9.57687689659563e-19
1.64722800081681e-20
2.94281384832103e-19
1.70008224067423e-19
1.04942868242181e-19
4.83071577873887e-19
2.28914588308755e-19
6.10942516457398e-20
1.24994809108826e-19
1.48123721101223e-19
1.39343545124247e-19
1.04975535688754e-19
9.05877183430828e-20
3.17946314518543e-19
4.47114399170224e-21
7.47802591814562e-20
1.70785901215441e-19
5.35383979187264e-20
2.49978245733408e-19
4.7449527164983e-19
4.55327376711195e-20
3.69509991675465e-20
1.74097614565026e-19
7.69716936548521e-20
9.62128828092644e-20
1.634761681797e-19
3.36862227985305e-20
6.29040796179996e-19
8.61509848117254e-20
1.03174854330912e-19
1.9205666326006e-19
1.2925486855861e-20
2.64186599198129e-20
5.58834856214093e-19
4.97711383793668e-19
2.10899286681647e-19
6.97187048880975e-20
1.00687211688296e-19
7.28710904286172e-20
3.45193634832056e-19
1.63463841326247e-19
7.92428060574841e-19
4.63755271144256e-20
3.03888426678435e-19
2.070909870893e-19
2.94770067372027e-19
1.52412119299889e-19
1.05549936418284e-19
8.48257278319682e-20
3.73778657927744e-20
2.29259024115128e-19
1.84087833358343e-19
1.05191278716038e-19
5.0721056626487e-20
5.24205984084614e-21
3.02885933110946e-19
9.54243271089826e-19
1.74802581488477e-19
3.77596077667267e-19
1.07744287435486e-19
2.41891068023147e-19
1.15000246841482e-18
2.28440702673035e-19
1.19192233557991e-19
1.08417539173782e-19
8.21549822699549e-20
2.04839426220998e-19
3.47845329685946e-19
4.68859508381197e-19
1.1659496587189e-19
2.09985329125671e-19
5.71771905483684e-19
4.01936775254521e-19
3.76495060736757e-19
3.36573532454613e-19
1.90870275408955e-20
3.92573989575837e-20
1.86027168795267e-19
2.77050893403264e-20
1.60180503063558e-19
1.21587597084852e-19
5.68352473652451e-20
6.85800119461039e-21
1.5240091928427e-19
2.88890675224784e-19
1.78033587881048e-19
2.26366362780255e-19
1.27925078261135e-19
1.48223194702798e-19
2.61770800107408e-19
1.43371282363938e-20
5.95771506892393e-20
6.11276847364353e-20
1.09488004439392e-19
1.16368880078352e-19
1.13980248675011e-19
1.70498078052254e-20
6.0833673013846e-20
2.1391664118386e-19
6.15721551035233e-20
2.92301850096253e-20
1.54869890690232e-19
7.8090149038149e-21
3.31348853365762e-19
2.88519620084428e-21
8.23364132085836e-19
3.83586495455817e-20
8.93420978777282e-20
1.65994016938529e-19
2.51972723107166e-19
1.18174702022871e-19
2.41050566096283e-19
3.43765335352391e-19
5.92590657930898e-19
2.61253286583783e-19
2.64870014602266e-19
1.86422518266222e-19
8.86628935018123e-20
4.47391019816536e-19
1.111798820108e-19
2.65333724342216e-19
8.60069357666263e-19
3.64866594127271e-20
4.45042558695718e-20
6.61470751470696e-20
2.47246240266738e-19
2.1346435002602e-19
1.03459198715869e-19
4.76836767961926e-21
4.65842423296326e-19
4.57495766271697e-20
1.18688423513961e-19
5.89371969491226e-20
1.26316723004379e-19
2.33838217804274e-19
8.44015909841615e-20
3.60994667221411e-19
4.13230209344027e-19
4.73318735761568e-20
1.05807676147029e-19
1.2106941220211e-19
3.67091249894886e-19
3.01136709324772e-20
5.48003700048088e-20
1.5666141766146e-19
7.66215263991489e-20
7.19820258319315e-20
3.30169813799318e-19
1.38556014502213e-19
3.57264104880025e-19
8.43356320664238e-20
9.59526946104445e-20
2.76830107748522e-19
1.75213257311591e-20
1.60445914918811e-19
2.14185960770059e-19
1.46303592982158e-20
1.09781558081754e-19
3.34114623398167e-20
9.380169738504e-20
4.2175735466483e-19
2.49127572612827e-19
3.81760905450007e-20
3.48550559940102e-19
2.44013660931753e-19
8.39332176437729e-20
1.21818673325862e-19
3.69607814595654e-20
2.39995220600745e-20
4.24628506551444e-19
3.01115603957635e-19
4.78485653028569e-19
2.88435755344014e-20
6.9934727911199e-20
1.15412583024144e-19
3.30943413615192e-20
2.83961122662467e-20
4.20446465392244e-20
2.48896477075843e-19
3.09409171587755e-19
1.35242829242013e-19
2.15137133454673e-20
1.36970188554064e-19
1.12468959782344e-20
2.78786785494891e-19
7.44693618328207e-20
4.37292325759248e-20
9.14927920909139e-20
7.99964302233843e-20
1.09802253826063e-19
5.18112315110421e-20
1.11839075744784e-19
1.17296815752901e-19
1.69612392218002e-19
2.00571504302373e-19
4.17050882144928e-20
3.23426545424544e-19
8.14584049017024e-20
3.98789732085968e-19
3.88377487446744e-19
2.46482298007754e-21
1.34539585146278e-19
2.04538447713141e-19
3.24607138898186e-20
1.334142328014e-20
1.95762821029607e-19
4.50124894224362e-19
3.08690814207431e-19
8.04182674596686e-20
2.57970813603904e-19
7.33512705470465e-20
9.89336324756836e-20
1.61469425283486e-19
5.40356423209498e-20
9.44252831775928e-20
4.31472634093077e-19
1.04896309531072e-19
4.73238305935983e-19
4.69645784732866e-20
1.5142530873009e-19
6.81861781569783e-20
1.24993171409009e-19
4.5295159018748e-19
1.8067524877691e-19
1.7871296484528e-20
1.2969582152075e-19
3.80451466105294e-19
8.26185401775439e-20
1.70568569783113e-19
7.31107462502077e-20
1.95348989245246e-19
2.50521172019298e-20
5.11648892107065e-19
1.58904013838673e-20
2.88124618721098e-20
5.82219528200995e-20
4.22060963650699e-20
1.49932086018029e-19
1.6386798090186e-19
7.8988733348039e-20
5.26362305879476e-19
7.46065740436601e-20
6.4390637356349e-19
2.404271279353e-20
3.17604731439932e-20
1.66687301278847e-19
3.37724179400209e-19
9.83730844697593e-20
2.54265114562833e-19
1.95441999828316e-19
1.72163617397549e-19
3.52366971397073e-20
1.00833261813995e-19
4.07927101082144e-20
5.80354518109335e-19
8.45665305257716e-20
2.80570591327353e-19
5.52834318605337e-20
3.02224094837882e-21
5.91784645095911e-20
7.23639821570598e-20
1.80142709616987e-19
8.06845517388292e-20
3.92337638866065e-19
1.30012636720304e-19
1.09309174760561e-19
1.98355298700785e-19
3.3796003075971e-19
8.55798855120989e-19
2.21778716992597e-19
3.03139988514701e-20
9.1904779218209e-20
2.55098254376584e-19
3.30735770633479e-19
1.14094430118282e-19
9.79519584997469e-20
1.33605661920151e-19
3.45413810885377e-19
2.65625751020848e-19
3.84928817753145e-19
3.71012372787659e-19
4.98763447541087e-20
4.56149827884997e-19
8.04199027685011e-20
5.01742016279671e-20
5.49787848026226e-19
9.98024623111257e-19
1.01261430542544e-19
4.26346423901145e-19
2.1413946264111e-19
6.24088862078941e-19
3.49989478184363e-19
2.79721885042562e-19
2.96206564374249e-19
8.38518112245773e-19
8.31171910896303e-20
2.8113528471469e-20
1.33727553849623e-19
3.10276611048149e-20
3.16098225911944e-19
2.22660740921417e-19
2.46568810248018e-20
9.2567080928329e-20
5.47919353275962e-19
8.90226338999979e-20
1.09374955069028e-19
8.44295907950353e-20
2.2450375961462e-20
2.84956466008724e-19
6.72357551288285e-20
2.86678665052361e-19
1.68122443544399e-19
1.23947993970199e-19
5.50905395023773e-19
2.2608761981939e-19
1.8287230177324e-20
3.35489032151598e-19
3.72969285130648e-20
3.37299208291375e-19
1.55032004074707e-19
1.62912298860774e-19
2.5765790872481e-19
3.61768876449545e-20
1.16489200175059e-19
5.41037660675487e-19
2.85506510552944e-19
2.94746027926765e-20
1.25219178986242e-20
3.56576001218396e-19
2.94638405021319e-19
1.51205079768056e-19
1.52412368691766e-20
1.18288524604e-19
2.8247827812718e-20
5.42337151299531e-20
1.05154423413094e-20
3.24939259445893e-19
2.7883753464217e-19
2.09818004746145e-19
3.5154364252492e-20
3.42291991401525e-19
7.31000917959011e-19
5.78730575857869e-20
3.08662357660725e-19
6.3936181189164e-20
5.52219246564902e-20
7.66816915223183e-20
2.34569819215764e-19
4.29986479718753e-20
2.06374207685594e-20
3.70481460121178e-20
4.2198294626833e-19
9.31836959089867e-20
3.72789931623369e-19
2.83697430075146e-19
1.48147557705947e-19
2.5780108859389e-19
2.74658409215887e-19
2.10565618991002e-19
2.30519576228182e-19
1.97958105236319e-19
7.12859440104716e-20
1.82173128150114e-19
4.44252252802087e-19
1.13759888254758e-19
3.56154168088174e-20
1.54887397100021e-19
4.19098700696658e-19
9.64002156157595e-20
1.07691457983851e-19
1.38685456024679e-19
4.02853485449007e-20
3.68920897338405e-19
7.76699115483765e-21
6.69554533147426e-20
3.12706594743647e-19
3.53531309788014e-20
8.09402753156969e-20
5.31812658615339e-20
5.07140703121871e-20
1.27459038418302e-19
3.14052730370156e-19
5.87648768877086e-19
1.12548714703779e-19
1.71045647860159e-19
5.05484416068979e-19
9.72834859311602e-20
2.38668864624253e-19
5.38808990768159e-20
7.32095570115276e-21
6.24924295854005e-20
1.74310627269097e-20
2.10642088717797e-19
3.65560332704969e-20
2.00499026197563e-19
1.32500976252096e-19
6.21444356456325e-20
1.39902545842065e-19
2.28980353968681e-19
7.57569914350814e-19
3.42234423978914e-20
2.08439492730651e-19
1.4773654355541e-19
2.90264937161986e-19
2.1337722609794e-19
2.22909206574567e-20
9.75162914005428e-20
1.72072179036443e-19
1.84239040085011e-19
4.76107833816977e-19
6.1156254787942e-19
4.47585514678091e-19
6.54614392491058e-20
1.45037030679163e-19
2.04763368100089e-19
7.41747064068629e-20
1.73888812262378e-19
2.49763510790329e-19
3.614104274764e-19
1.29375898725653e-19
6.96366912117894e-19
1.49835488304826e-19
1.18849287470863e-19
1.22067927129528e-19
5.8109857818523e-19
3.2767738030912e-20
6.6261643699988e-19
2.29721274428118e-20
2.29355548434601e-19
3.97700815571548e-21
8.7683224738569e-20
5.41902303184668e-19
3.09507801331934e-19
2.17698215314783e-19
4.37091471148698e-20
8.61646756593135e-20
1.05077889973301e-19
2.88422072472066e-20
4.35362086620523e-19
7.91500125954141e-20
2.30062509763327e-19
3.56216119374667e-19
1.14588143295304e-20
1.13352258596582e-19
4.27525793897245e-19
9.46563856968381e-21
6.86785930080158e-20
8.51167582781433e-19
2.10703155443216e-20
4.91498548905972e-19
4.22922458050104e-19
2.17157055337486e-20
2.29254904933016e-19
1.99435275157796e-20
3.26705459064824e-21
2.31912210889723e-19
3.34068828273808e-20
9.57083833123228e-20
7.132840558668e-20
9.21564937329878e-20
2.88177034082165e-19
3.23804878300892e-20
7.3462286379575e-20
3.81727390898816e-19
5.92493771585352e-19
3.04304419025954e-20
6.69947605523091e-20
7.03085536767093e-20
5.54187533934183e-19
7.80617464553928e-20
9.6266852608522e-20
1.00902981693943e-19
1.70839163818594e-22
1.19206332520447e-19
5.73721987817793e-19
4.54157984543598e-20
8.18299088046236e-20
8.08214998784918e-20
5.89928495854987e-20
4.56977700792166e-19
2.23922536844098e-20
1.21110818277293e-19
1.62911276525559e-20
7.67086608430658e-19
1.09499638586839e-19
4.7486188259768e-22
5.59793315441701e-20
6.49109941671827e-20
8.3301599647392e-19
1.91833439103582e-20
3.2739081805269e-20
5.60617825816358e-19
2.81332216994369e-19
1.50792825242352e-19
2.16423922273353e-19
3.89476666545916e-19
4.4053982070703e-19
1.52261821142613e-20
1.76892186941649e-19
2.98812774127013e-19
3.71604834235217e-20
3.0368042346908e-19
3.00304460872262e-19
2.28221962307966e-20
1.6960087285155e-19
7.8990204274194e-20
9.48196802260259e-20
3.02192697517781e-19
1.07696284278164e-19
5.02577365045941e-20
7.69966675351669e-20
3.93122803702163e-19
4.02597473548544e-19
1.90967795041446e-19
6.42699056172173e-20
8.98161067238854e-20
2.27361775747671e-20
2.43374881829257e-19
2.3493196426154e-19
2.2807593659563e-19
5.63670008544848e-19
2.15289362087318e-19
9.14837507221303e-20
9.94332160217758e-19
1.47669555735838e-19
1.07561895055545e-20
1.21872539894232e-20
1.48654897812084e-19
4.58403159416242e-19
1.06692375688683e-19
9.85257835573755e-20
9.18319651132708e-20
1.10573497916168e-19
2.91803449112069e-19
5.05060523246085e-19
3.3085026192367e-19
2.22255096774587e-19
1.2061647481334e-19
3.10045531001036e-19
2.01293508734667e-19
1.53701375259808e-19
2.35148625967902e-19
2.71364197227583e-19
5.68905776429084e-20
2.15778326532534e-20
2.37353078836668e-19
6.68669462539976e-20
2.75256741166903e-21
1.65483238867614e-19
1.77451349727959e-19
2.14165023064145e-19
6.54938368450461e-19
6.91957363444834e-20
1.80997709291402e-19
2.997767161571e-20
3.58961717829819e-20
1.89319658129616e-19
5.38006172630197e-19
8.04482572250049e-19
1.43103733681673e-19
1.374487961311e-19
1.83769711336633e-20
1.58595098517339e-19
1.00145984745016e-19
1.84503620389726e-19
1.28513251721979e-19
4.92496006413604e-20
6.2982039965942e-20
1.35404639243059e-19
3.86956350378847e-20
2.76098318844268e-19
2.16719904187802e-19
2.22644226115512e-19
5.50684702209116e-19
1.53895969535007e-19
3.2325415932113e-19
2.47810425413174e-19
3.59449621656499e-19
4.81683384809457e-20
3.23219757623683e-19
2.44164939970107e-19
3.81110281432194e-19
7.71191302714158e-20
3.18897144429148e-20
1.8371239508843e-19
4.60921621420582e-19
4.07307117712325e-19
2.12680678508899e-19
1.96779419850605e-19
9.9406688563874e-20
3.3829178272753e-19
2.4612043310396e-19
2.99168790509494e-19
1.11550684080849e-19
2.23237704127546e-19
4.57967737803881e-19
5.13935243628008e-20
1.05646252773268e-19
6.76461663697003e-20
1.88819641222043e-19
2.56555998221312e-20
1.19476623893808e-19
1.31342989239408e-19
1.13398707936472e-19
2.27508219692814e-19
1.32789730294516e-20
8.09607615254862e-20
1.20209565491006e-19
5.79103074239908e-20
2.26460800950618e-20
1.06861595488624e-21
2.17169256232322e-19
1.36372998460398e-19
1.44015446502963e-19
1.15786949012026e-21
5.61469721379668e-19
8.77061967895245e-19
1.25858998554818e-19
5.40738889069921e-20
1.34474101878219e-19
5.45373624977861e-20
7.52995930339446e-19
2.77593709367047e-19
2.32705146971506e-19
2.34263802924265e-19
2.81889164947993e-19
2.69636265256812e-20
8.54726621016275e-20
3.78459677308106e-19
1.75292952651635e-19
3.07749094828899e-20
2.13454054382633e-19
9.1578446081103e-20
3.00842946957138e-20
7.0041391671837e-20
7.10869913297297e-19
1.00922822822823e-19
2.29926105485083e-19
2.66165903183033e-19
4.05870392394467e-19
1.5245068878841e-19
5.07050545253073e-20
1.37371101122984e-19
2.05173244715289e-20
2.03567840235424e-19
8.2353682592525e-20
8.73090868927097e-20
3.6846549912037e-19
3.21583156541184e-19
5.61390680126307e-19
9.08820552441022e-20
1.53004895033097e-19
2.21457490360225e-19
6.3366734685514e-20
1.0883755279846e-19
2.97943375019906e-19
2.33368549458584e-20
1.99323894376433e-19
7.12747951546415e-19
3.10573184027796e-19
8.88573446256169e-20
2.4408040031439e-19
3.60269247836209e-20
1.74976893271935e-19
2.15960044625923e-19
8.1825288575464e-20
2.42399648058086e-19
2.62226050862114e-19
6.22828614252241e-19
7.2451781682512e-20
4.95345237755159e-20
1.08338082833891e-19
1.15532785620201e-19
6.35224191397771e-21
6.43338174693425e-20
2.44574771525144e-19
2.97069911078575e-19
3.93902325674931e-19
3.58655685240456e-20
7.18050225202615e-20
4.35791288638468e-20
1.32734844829294e-19
3.06241289748414e-19
2.75829006899737e-19
4.3331494701461e-19
4.40754653675405e-19
2.71073804674808e-19
8.52688633295764e-20
1.63190801510869e-19
1.51376033539593e-19
2.69166906343393e-19
5.09722483403634e-19
6.15255831582032e-19
5.63935449573771e-19
3.71186521118856e-19
1.18800546758859e-18
6.86688240477617e-19
2.55075752209844e-19
5.85543270049338e-19
1.04422061486243e-18
4.55148939104567e-20
7.39343593827583e-19
4.45226242482765e-20
7.81796321821874e-20
5.26053950035862e-20
8.95752048678286e-20
2.59935516487039e-19
1.06904690610915e-19
2.53094668589075e-19
3.22177787207245e-20
5.00934462589821e-19
1.26966346776811e-19
8.87018159459934e-19
1.27762992624826e-19
5.68480287855551e-20
4.23440964601758e-20
1.91966455560719e-19
1.58522370199357e-19
4.47859636868821e-20
1.58592173130438e-19
3.21831061179964e-19
5.60413776465565e-20
3.15483011482531e-20
2.3804615027332e-19
1.2177386489561e-19
1.71074427306444e-19
1.09446490275474e-19
9.62239075460448e-21
9.55184073098305e-20
8.28865435950896e-19
2.60797917879901e-19
2.06997597161436e-19
5.26113373638524e-20
1.05043672239567e-19
3.41854185043724e-19
4.97033479420743e-19
8.31121019996698e-21
2.20386942602102e-19
2.22521891150695e-20
1.32916347758361e-19
1.54974742128096e-19
7.27020163117027e-20
4.93511522423997e-19
3.49905993851109e-20
1.05815039865652e-19
1.23152472780315e-20
4.23637429189463e-19
1.02164940287218e-18
2.6291931456746e-19
1.2524139062918e-19
4.83922517183421e-20
2.52269418889523e-19
1.71980363819538e-20
2.82289674722507e-22
2.98275903201313e-19
1.73777462065674e-19
1.85846747261899e-19
7.80282453013167e-20
4.16518151514029e-19
8.3092458124963e-20
2.86632755142285e-19
5.37226964057423e-19
5.1743304287533e-20
4.91993402336032e-19
4.34209956081846e-19
1.19964316811662e-19
4.57673077645006e-20
2.26336597420209e-19
4.21390491398486e-19
3.27125945887845e-19
5.13543451363861e-20
3.74637094849075e-19
5.31211860781348e-21
5.71348045662557e-19
7.96486891669131e-19
1.05394327016125e-21
4.55492947825455e-20
2.84827420433544e-19
3.91925632724546e-20
1.06684978815955e-19
2.32137183055153e-20
1.51183398422226e-19
5.16634151412829e-19
1.83915432303539e-19
3.94043606253633e-19
3.93837978192892e-20
2.35312794291059e-19
1.4758556238984e-19
1.99369654804657e-19
5.4207098520886e-20
3.35060832645494e-20
2.12065608338031e-19
2.24545573201628e-19
2.71571911042984e-19
3.98131801212014e-20
4.23890861979122e-20
2.05222893655433e-19
1.01737052943298e-20
1.33339450536505e-19
2.69174508121531e-19
1.75641574700364e-19
6.85475159742983e-20
4.31384021200327e-20
1.05967863404314e-19
2.82914348970222e-19
5.41181241121725e-19
2.19916217917918e-19
6.52952263915722e-21
1.85187865985086e-19
1.03030129350642e-19
1.65014727627863e-19
4.31737934441577e-19
1.92941052494744e-19
7.57341246889273e-20
2.95560029885185e-19
4.56329228418349e-20
1.04165345436432e-19
3.80118223401912e-19
4.5219639260362e-20
1.68250505599675e-19
4.24962363608004e-19
5.00148790412001e-20
3.25544105158484e-19
1.58255769317153e-20
5.57968266326504e-20
1.01783485387127e-19
8.42810316723758e-20
3.6786847702861e-19
3.21703933716191e-20
3.52637854313167e-20
1.90230684944562e-19
5.15772205191265e-19
2.02530508937836e-19
8.87305979050021e-19
2.95165267174184e-19
1.26592908124966e-20
7.91420310871759e-20
1.45572408008225e-19
2.80345718624048e-20
4.51294736219224e-20
1.07586537835852e-19
1.74778321330398e-19
2.63411749378905e-19
1.88542339671742e-19
3.15509963815532e-20
1.6415272176861e-19
3.94000072358198e-19
3.45585319109738e-20
4.15691851509016e-19
2.17317131427761e-19
1.15341869926257e-19
2.45337779576988e-20
8.97661815492534e-20
2.68993581130313e-19
4.54252676695899e-19
1.09112555799132e-19
9.16186152817727e-21
1.37562472589686e-19
2.78049985937285e-21
1.60217113431684e-19
2.45516668152794e-20
4.03559221324759e-20
1.50674422877566e-19
3.55593369098892e-19
5.29423245331439e-19
1.40343511888628e-19
5.44003141066746e-19
7.38081471465086e-20
8.77771253867698e-20
9.31008363828402e-20
4.68041164996611e-20
1.78065687705308e-19
5.8289439170142e-20
1.33257386521813e-19
1.20525300894987e-19
2.30904075296751e-19
1.26200183746882e-20
4.53528625114212e-20
9.05336825010209e-21
4.48972413309823e-21
1.77198280836012e-19
1.1533193377162e-19
2.63981429255881e-19
4.44903878854339e-19
7.17818228397626e-20
2.481774847243e-19
8.18265205010974e-20
1.5550459709083e-19
2.18811184679893e-19
8.6755110672659e-21
9.38808843604792e-20
4.47992726924449e-19
1.88387207230523e-20
4.84522093231878e-20
1.54544880249933e-19
4.8006813545863e-20
1.56296062030091e-19
1.15804667799257e-19
9.73202436400837e-20
9.83606057602593e-20
4.91624980765616e-19
1.93411368589819e-19
3.92782054346951e-19
5.12516894252013e-20
3.35666477567219e-19
2.02623173768335e-19
2.17409796903208e-19
4.66094446716542e-19
1.11336826509998e-18
6.6306759938409e-19
1.21617005382757e-19
2.5509042005555e-19
8.40050675614892e-19
2.8138099577766e-19
1.98368034947984e-19
5.24263289587445e-19
3.3159262449961e-20
5.05063371966882e-19
1.18687532953946e-19
3.31814483030479e-19
1.03162719088813e-19
6.21956800895954e-19
9.38828043896722e-20
7.20391122074481e-20
5.14516283342301e-19
3.42839505204385e-19
3.44800455275982e-19
1.60002806856513e-19
6.75355985495375e-20
2.63516051399153e-20
8.11447324388846e-21
2.64735252332714e-19
7.89918167884987e-19
4.1443625517773e-19
2.80331255973653e-20
4.36545807950032e-19
7.26270137777035e-19
3.90947513836304e-20
1.17458045529389e-19
8.45432007272034e-20
1.2065840093609e-19
4.18231912673349e-20
1.89286559982942e-19
4.65219114025128e-19
2.74690081968273e-19
1.07248869870469e-19
2.10952605098229e-19
2.00972126503051e-20
1.24063537702557e-20
1.4731044527039e-19
2.39480558369695e-19
4.28674139981186e-19
2.5571468664631e-19
1.26936625416049e-20
6.27460284133963e-20
1.57548523638835e-19
4.64044733699815e-19
5.24322242281559e-20
5.69609963162021e-19
4.53505294539027e-19
2.12267185242977e-19
3.42426475919799e-20
8.32361335355918e-20
1.39746812390652e-20
2.76438486157009e-19
4.49397142508601e-20
5.7837658554686e-20
8.51307569015892e-20
3.70846758467444e-20
4.58509856779191e-20
4.08275207434375e-19
5.75308390747793e-19
5.6461259648152e-19
5.2577651655493e-19
2.50844716013959e-21
2.31734976816436e-19
7.88178717743031e-20
6.36342119095191e-19
6.6908526649543e-20