/*--------------------------------*- C++ -*----------------------------------*\
| =========                 |                                                 |
| \\      /  F ield         | OpenFOAM: The Open Source CFD Toolbox           |
|  \\    /   O peration     | Version:  dev                                   |
|   \\  /    A nd           | Web:      www.OpenFOAM.com                      |
|    \\/     M anipulation  |                                                 |
\*---------------------------------------------------------------------------*/
FoamFile
{
    version     2.0;
    format      ascii;
    class       dictionary;
    object      blockMeshDict;
}
// * * * * * * * * * * * * * * * * * * * * * * * * * * * * * * * * * * * * * //

convertToMeters 1e-3;

vertices
(
	  ( 0    0    0)   
    ( 50    0    0)   
    ( 50  600    0)   
    ( 0    600    0)  
    (0  0  1)  
    ( 50  0    1)  
    ( 50  600  1)   
    ( 0   600    1)  
    
    (1000 0 0)
    (1000 600 0)
    (1000 0 1)
    (1000 600 1)  
);

blocks
(
    hex (0 1 2 3 4 5 6 7) (5 60 1) simpleGrading (0.5 2 1)
    hex (1 8 9 2 5 10 11 6) (95 60 1) simpleGrading (2 2 1)
);

edges
(
);

patches
(
    wall 
	  plate
    (
       (1 8 10 5)
    )

    patch 
	  inlet
    (
        (3 2 6 7)
        (0 1 5 4)
        (8 9 11 10)
        (0 4 7 3)
        (2 9 11 6)
    )
  
);

mergePatchPairs
(
);

// ************************************************************************* //
