/*---------------------------------------------------------------------------*\
| =========                 |                                                 |
| \\      /  F ield         | OpenFOAM: The Open Source CFD Toolbox           |
|  \\    /   O peration     | Version:  1.3                                   |
|   \\  /    A nd           | Web:      http://www.openfoam.org               |
|    \\/     M anipulation  |                                                 |
\*---------------------------------------------------------------------------*/
FoamFile
{
    version     2.0;
    format      ascii;
    class       dictionary;
    location    "system";
    object      boundariesDict;
}
// * * * * * * * * * * * * * * * * * * * * * * * * * * * * * * * * * * * * * //

dsmcPatchBoundaries
( 
    boundary
    {
        patchBoundaryProperties
        {
            patchName     plate;
        }

        boundaryModel        dsmcDiffuseWallPatch;

        dsmcDiffuseWallPatchProperties
        {
            velocity             (0 0 0);
            temperature            500;
        }
    }

    boundary
    {
        patchBoundaryProperties
        {
            patchName            defaultFaces;
        }

        boundaryModel        dsmcSpecularWallPatch;

        dsmcSpecularWallPatchProperties
        {
        }
    }

    boundary
    {
        patchBoundaryProperties
        {
         patchName                           inlet;
        }

        boundaryModel   dsmcDeletionPatch;

        dsmcDeletionPatchProperties
        {
            allSpecies		yes;
        }
    }
);

dsmcCyclicBoundaries
(

);

dsmcGeneralBoundaries
(
    boundary
    {
        generalBoundaryProperties
        {
            patchName                inlet;
        }

        boundaryModel   dsmcFreeStreamInflowPatch;

        dsmcFreeStreamInflowPatchProperties
        {
			      typeIds				                (N2cold);
			      numberDensities
			      {
				         N2cold		1e20;
			      }
			      
			      translationalTemperature			300;
			      rotationalTemperature			    300;
			      velocity			                (1412.5 0 0);
	      }
    }
     
);


// ************************************************************************* //
