/*--------------------------------*- C++ -*----------------------------------*\
| =========                 |                                                 |
| \\      /  F ield         | OpenFOAM: The Open Source CFD Toolbox           |
|  \\    /   O peration     | Version:  1.6                                   |
|   \\  /    A nd           | Web:      www.OpenFOAM.org                      |
|    \\/     M anipulation  |                                                 |
\*---------------------------------------------------------------------------*/
FoamFile
{
    version     2.0;
    format      ascii;
    class       dictionary;
    location    "system";
    object      controlDict;
}
// * * * * * * * * * * * * * * * * * * * * * * * * * * * * * * * * * * * * * //

application     dsmcFoam+;

nTerminalOutputs	10;

startFrom       startTime;

startTime       0;

stopAt          endTime;

endTime         0.14;

deltaT          4e-6;

writeControl    runTime;

writeInterval   4e-4;

purgeWrite      2;

writeFormat     ascii;

writePrecision  10;

writeCompression off;

timeFormat      general;

timePrecision   10;

runTimeModifiable true;

adjustTimeStep  no;

functions
{
    #include "forces"
}


// ************************************************************************* //
