/*--------------------------------*- C++ -*----------------------------------*\
| =========                 |                                                 |
| \\      /  F ield         | OpenFOAM: The Open Source CFD Toolbox           |
|  \\    /   O peration     | Version:  v1706                                 |
|   \\  /    A nd           | Web:      www.OpenFOAM.com                      |
|    \\/     M anipulation  |                                                 |
\*---------------------------------------------------------------------------*/
FoamFile
{
    version     2.0;
    format      ascii;
    class       polyBoundaryMesh;
    location    "constant/polyMesh";
    object      boundary;
}
// * * * * * * * * * * * * * * * * * * * * * * * * * * * * * * * * * * * * * //

5
(
    flow
    {
        type            patch;
        nFaces          180;
        startFace       7860;
    }
    cylinder
    {
        type            wall;
        inGroups        1(wall);
        nFaces          60;
        startFace       8040;
    }
    wedgeFront
    {
        type            symmetry;
        inGroups        1(symmetry);
        nFaces          4000;
        startFace       8100;
    }
    wedgeBack
    {
        type            symmetry;
        inGroups        1(symmetry);
        nFaces          4000;
        startFace       12100;
    }
    defaultFaces
    {
        type            empty;
        inGroups        1(empty);
        nFaces          0;
        startFace       16100;
    }
)

// ************************************************************************* //
