/*--------------------------------*- C++ -*----------------------------------*\
| =========                 |                                                 |
| \\      /  F ield         | OpenFOAM: The Open Source CFD Toolbox           |
|  \\    /   O peration     | Version:  v1706                                 |
|   \\  /    A nd           | Web:      www.OpenFOAM.com                      |
|    \\/     M anipulation  |                                                 |
\*---------------------------------------------------------------------------*/
FoamFile
{
    version     2.0;
    format      ascii;
    class       polyBoundaryMesh;
    location    "constant/polyMesh";
    object      boundary;
}
// * * * * * * * * * * * * * * * * * * * * * * * * * * * * * * * * * * * * * //

6
(
    bottom
    {
        type            patch;
        nFaces          200;
        startFace       1795;
    }
    top
    {
        type            patch;
        nFaces          200;
        startFace       1995;
    }
    inlet
    {
        type            patch;
        nFaces          5;
        startFace       2195;
    }
    outlet
    {
        type            patch;
        nFaces          5;
        startFace       2200;
    }
    back
    {
        type            symmetry;
        inGroups        1(symmetry);
        nFaces          1000;
        startFace       2205;
    }
    front
    {
        type            symmetry;
        inGroups        1(symmetry);
        nFaces          1000;
        startFace       3205;
    }
)

// ************************************************************************* //
