/*--------------------------------*- C++ -*----------------------------------*\
| =========                 |                                                 |
| \\      /  F ield         | OpenFOAM: The Open Source CFD Toolbox           |
|  \\    /   O peration     | Version:  v1706                                 |
|   \\  /    A nd           | Web:      www.OpenFOAM.com                      |
|    \\/     M anipulation  |                                                 |
\*---------------------------------------------------------------------------*/
FoamFile
{
    version     2.0;
    format      ascii;
    class       dictionary;
    location    "0.003/uniform/lagrangian/dsmc";
    object      cloudProperties;
}
// * * * * * * * * * * * * * * * * * * * * * * * * * * * * * * * * * * * * * //

processor0
{
    particleCount   17974504;
}

processor1
{
    particleCount   17700801;
}

processor2
{
    particleCount   2019194;
}

processor3
{
    particleCount   673073;
}


// ************************************************************************* //
