/*--------------------------------*- C++ -*----------------------------------*\
| =========                 |                                                 |
| \\      /  F ield         | OpenFOAM: The Open Source CFD Toolbox           |
|  \\    /   O peration     | Version:  v1706                                 |
|   \\  /    A nd           | Web:      www.OpenFOAM.org                      |
|    \\/     M anipulation  |                                                 |
\*---------------------------------------------------------------------------*/
FoamFile
{
    version     2.0;
    format      ascii;
    class       dictionary;
    location    "constant";
    object      hTCReactionsQK; // Quantum-kinetic chemical reaction framework
}
// * * * * * * * * * * * * * * * * * * * * * * * * * * * * * * * * * * * * * //

// T. J. Scanlon, C. White, M. K. Borg, R. C. Palharini, E. Farbar, I. D. Boyd,
//    J. M. Reese and R. E. Brown
// Open source Direct Simulation Monte Carlo (DSMC) chemistry modelling for 
//    hypersonic flows
// AIAA Journal
// vol. 53, no 6 (doi 10.2514/1.J053370)
// 2015

species
(
    N2
    //O2
    //NO
    //N2+
    //O2+
    //NO+
    //N
    //O
    //N+
    //O+
    //e-
);

vibTempAssociativity (0);

// * * * * * * * * * * * * * * * * * * * * * * * * * * * * * * * * * * * * * //
/* REACTIONS NO 1 TO 15              -> DISSOCIATION
   REACTIONS NO 16 TO 19             -> EXCHANGE                             */
// * * * * * * * * * * * * * * * * * * * * * * * * * * * * * * * * * * * * * //

// Units
// A: m^3 kmol^-1 s^-1
// Ta: K

reactions
{
    // Reaction no 1
    /*oxygenAtomicNitrogenReaction
    {
        type     irreversibleArrheniusReaction;
        reaction "O2 + N = 2O + N";
        controlT dissociation;
        A        6.624e16;
        beta     -1.0;
        Ta       59370.6;
    }

    // Reaction no 2
    oxygenNitricoxideReaction
    {
        type     irreversibleArrheniusReaction;
        reaction "O2 + NO = 2O + NO";
        controlT dissociation;
        A        6.624e16;
        beta     -1.0;
        Ta       59370.6;
    }
    
    // Reaction no 3
    oxygenNitrogenReaction
    {
        type     irreversibleArrheniusReaction;
        reaction "O2 + N2 = 2O + N2";
        controlT dissociation;
        A        7.829e16;
        beta     -1.0;
        Ta       59370.6;
    }
    
    // Reaction no 4
    oxygenReaction
    {
        type      irreversibleArrheniusReaction;
        reaction "O2 + O2 = 2O + O2";
        controlT dissociation;
        A        3.210e16;
        beta     -1.0;
        Ta       59370.6;
    }
    
    // Reaction no 5
    oxygenAtomicOxygenReaction
    {
        type     irreversibleArrheniusReaction;
        reaction "O2 + O = 2O + O";
        controlT dissociation;
        A        9.033e16;
        beta     -1.05;
        Ta       59370.6;
    }
    
    // Reaction no 6
    nitrogenAtomicOxygenReaction
    {
        type     irreversibleArrheniusReaction;
        reaction "N2 + O = 2N + O";
        controlT dissociation;
        A        2.409e15;
        beta     -0.54;
        Ta       113497.4;
    }
    
    // Reaction no 7
    nitrogenOxygenReaction
    {
        type     irreversibleArrheniusReaction;
        reaction "N2 + O2 = 2N + O2";
        controlT dissociation;
        A        9.033e15;
        beta     -0.68;
        Ta       113497.4;
    }
       
    // Reaction no 8
    nitrogenNitricoxideReaction
    {
        type     irreversibleArrheniusReaction;
        reaction "N2 + NO = 2N + NO";
        controlT dissociation;
        A        9.033e15;
        beta     -0.68;
        Ta       113497.4;
    }*/
    
    // Reaction no 9
    /*nitrogenReaction
    {
        type     irreversibleArrheniusReaction;
        reaction "N2 + N2 = 2N + N2";
        controlT dissociation;
        A        2.469e15;
        beta     -0.62;
        Ta       113497.4;
    }*/
    
    // Reaction no 10
    /*nitrogenAtomicNitrogenReaction
    {
        type     irreversibleArrheniusReaction;
        reaction "N2 + N = 2N + N";
        controlT dissociation;
        A        6.022e15;
        beta     -0.68;
        Ta       113497.4;
    }

    // Reaction no 11
    nitricoxideNitrogenReaction
    {
        type     irreversibleArrheniusReaction;
        reaction "NO + N2 = N + O + N2";
        controlT dissociation;
        A        1.265e17;
        beta     -1.0;
        Ta       75544.2;
    }
     
    // Reaction no 12
    nitricoxideOxygenReaction
    {
        type     irreversibleArrheniusReaction;
        reaction "NO + O2 = N + O + O2";
        controlT dissociation;
        A        1.204e17;
        beta     -1.0;
        Ta       75544.2;
    }    
    // Reaction no 13
    nitricoxideReaction
    {
        type     irreversibleArrheniusReaction;
        reaction "NO + NO = N + O + NO";
        controlT dissociation;
        A        6.022e16;
        beta     -1.0;
        Ta       75544.2;
    }
    
    // Reaction no 14
    nitricoxideAtomicOxygenReaction
    {
        type     irreversibleArrheniusReaction;
        reaction "NO + O = N + 2O";
        controlT dissociation;
        A        2.409e17;
        beta     -1.1;
        Ta       75544.2;
    }
    
    // Reaction no 15
    nitricoxideAtomicNitrogenReaction
    {
        type     irreversibleArrheniusReaction;
        reaction "NO + N = O + 2N";
        controlT dissociation;
        A        2.409e17;
        beta     -1.1;
        Ta       75544.2;
    }
    
    // Reaction no 16
    nitricoxideAtomicOxygenExchangeReaction
    {
        type     irreversibleArrheniusReaction;
        reaction "NO + O = O2 + N";
        controlT exchange;
        A        1.385e8;
        beta     0.5;
        Ta       19693.6;
    }
    
    // Reaction no 17
    nitrogenAtomicOxygenExchangeReaction
    {
        type     irreversibleArrheniusReaction;
        reaction "N2 + O = NO + N";
        controlT exchange;
        A        4.818e10;
        beta     0;
        Ta       37482.4;
    }
    
    // Reaction no 18
    nitrogenAtomicNitrogenExchangeReaction
    {
        type     irreversibleArrheniusReaction;
        reaction "O2 + N = NO + O";
        controlT exchange;
        A        2.409e12;
        beta     -0.39;
        Ta       1448.6;
    }  
    
    // Reaction no 19
    nitricoxideAtomicNitrogenExchangeReaction
    {
        type     irreversibleArrheniusReaction;
        reaction "NO + N = N2 + O";
        controlT exchange;
        A        3.011e11;
        beta     -0.35;
        Ta       1448.6;
    }*/
}
