/*--------------------------------*- C++ -*----------------------------------*\
| =========                 |                                                 |
| \\      /  F ield         | OpenFOAM: The Open Source CFD Toolbox           |
|  \\    /   O peration     | Version:  2.3.0                                 |
|   \\  /    A nd           | Web:      www.OpenFOAM.org                      |
|    \\/     M anipulation  |                                                 |
\*---------------------------------------------------------------------------*/
FoamFile
{
    version     2.0;
    format      ascii;
    class       volScalarField;
    object      Tv_O+;
}
// * * * * * * * * * * * * * * * * * * * * * * * * * * * * * * * * * * * * * //

#include "include/initialConditions"

dimensions      [0 0 0 1 0 0 0];

internalField   uniform $TveAtom;

boundaryField
{
    inlet
    {
        type            fixedValue;
        value           uniform $TveAtom;
    }
    
    fire
    {
        type            fixedValue;
        value           uniform $TveAtom;
    }
    
    #include "include/boundaries"
}

// ************************************************************************* //
