/*--------------------------------*- C++ -*----------------------------------*\
| =========                 |                                                 |
| \\      /  F ield         | OpenFOAM: The Open Source CFD Toolbox           |
|  \\    /   O peration     | Version:  v1706                                 |
|   \\  /    A nd           | Web:      www.OpenFOAM.com                      |
|    \\/     M anipulation  |                                                 |
\*---------------------------------------------------------------------------*/
FoamFile
{
    version     2.0;
    format      ascii;
    class       scalarField;
    location    "0/lagrangian/dsmc";
    object      ERot;
}
// * * * * * * * * * * * * * * * * * * * * * * * * * * * * * * * * * * * * * //


99998
(
3.92962318101248e-20
5.49073439876974e-19
4.68948536197279e-19
2.54705237256211e-20
3.53876425256451e-19
7.48062957256636e-21
1.20526022798126e-19
6.42856663253414e-20
1.21076883512638e-19
1.3549656029912e-19
6.25248613193268e-20
1.8125956941766e-19
2.75240259521184e-20
6.39950121714331e-19
1.77642902853946e-20
3.97852025409384e-19
2.58566555298006e-20
4.02113982062038e-19
7.39119093407291e-20
1.29140385765003e-19
5.21915710382415e-19
4.84078518708742e-20
2.03305734291384e-19
1.04070375197079e-19
2.12069591173437e-20
1.55929482019057e-20
2.72304731719096e-19
1.28217777033098e-19
5.39688696865231e-21
2.15094910222657e-20
4.08389253556547e-20
3.93549311504851e-20
7.52870693782103e-19
1.8113407465784e-19
2.01875030278557e-19
9.45713092075355e-20
2.14840579253306e-20
4.13164822689866e-20
2.45486289016573e-19
2.23182476096617e-20
2.17050061409448e-19
2.17615066993767e-20
1.12502293214502e-19
3.75419968069302e-19
5.52862155528543e-19
3.36335290310605e-19
2.40557193933411e-20
2.516540696281e-19
6.54442977043205e-20
3.1337636733857e-20
2.5821488356725e-20
6.22183668290869e-20
7.27887668649629e-20
4.75334923438955e-20
2.74669823802446e-20
7.48253607637453e-19
2.48711795222152e-19
1.21302803449484e-19
2.85535273073273e-19
4.74299170924649e-20
4.54108228616017e-20
3.80796645810935e-21
1.40666467936993e-20
4.37450755209627e-20
1.48603284686449e-19
1.78167837876464e-19
3.8460183457604e-19
1.11489051852842e-19
5.55045641140979e-20
2.89383212202914e-20
1.28564688853939e-19
2.05387242837369e-19
2.78603990492204e-19
6.32881203176755e-20
3.48894630751131e-19
5.45714263714984e-20
8.80166179056609e-20
5.88686235902338e-20
3.00399060339606e-19
8.22734687272693e-20
1.26859605264156e-19
6.90990843409609e-20
4.72553877873584e-20
2.54395724005689e-19
2.01205145072917e-19
2.12382441303185e-20
2.06826095522772e-20
5.0729123741416e-20
8.40589594291812e-20
3.95744171874685e-19
1.16734905087037e-20
8.8458606572589e-20
8.7066683191462e-21
1.08078573573828e-19
2.32335057570051e-20
7.91821717088349e-20
2.79170454368257e-20
3.56210500959189e-19
5.11018366892051e-21
6.54002846953587e-20
4.77848955104693e-20
3.20006621257561e-19
1.31217562332621e-19
6.88689556713723e-21
3.00453067083541e-20
4.02073777092502e-19
9.61949382615576e-20
3.98335104248654e-19
1.47058567887109e-19
5.28920587325646e-21
2.28686951889125e-19
8.15811576808986e-20
3.959247503237e-20
2.76790473290239e-20
1.08725850957622e-19
3.61809536487135e-19
7.54231018246592e-20
3.65896915450588e-19
2.94448204656515e-19
1.02049551607231e-19
4.3012996497063e-20
2.2896019833434e-19
1.00096368274588e-19
2.3363548397999e-20
1.91314656061316e-20
1.66808450568468e-20
3.27543640051365e-19
2.64681562275244e-19
9.71330152336469e-20
3.35631177550751e-19
3.00265251339108e-19
2.58747726936677e-20
1.35791935013186e-19
1.4019835508532e-19
7.28030085448735e-20
2.34425440370709e-19
1.56995752478124e-19
1.11514311874659e-19
2.03137516322101e-19
1.11880059229458e-19
3.36432717507083e-19
4.28991525098202e-20
1.14082571844436e-19
6.87287838145519e-20
2.79481244817955e-19
7.93350801857002e-20
7.79237517588703e-20
4.65821940269103e-19
1.47204736265122e-19
2.53565076890213e-22
3.10974348486474e-19
6.96543525012649e-20
4.75526774185062e-20
8.87578046503428e-20
2.57617185562376e-19
1.17539474143204e-19
1.82172407002404e-20
3.00912654092261e-20
2.18090333097115e-20
8.48825457448052e-20
9.16545968146171e-20
3.18854766246772e-20
3.20226038630117e-19
3.89803787281295e-20
1.77464067732824e-19
2.07348070705373e-19
1.78701247971996e-20
1.2393450760467e-19
9.07208495978031e-20
2.84910501023247e-19
4.00349737825344e-19
3.43849022516445e-20
6.46696633093639e-20
3.61567779377799e-19
8.2784255408524e-20
6.93722099642976e-20
1.82333274829367e-19
4.52598791791388e-20
5.82981964830383e-20
1.97158769813205e-19
3.77015843327109e-19
3.56396716011873e-20
4.66964438612479e-20
2.4050517652371e-19
4.33700244995647e-19
9.00035508120922e-20
3.87380696009347e-21
2.84939031151436e-20
6.35259473693431e-20
7.21424992495096e-20
5.70421539416141e-19
2.92258069955766e-19
3.69303531542381e-21
2.21758333133082e-20
2.05224308014855e-19
6.94398205381063e-21
4.81660783033879e-20
5.76513931808176e-20
2.40162289331162e-19
3.86211373896511e-19
6.95685681942417e-21
1.57617265428753e-19
1.01493554180406e-19
3.68059213423507e-21
3.22218938229976e-19
4.50503955156736e-20
4.42687897563637e-20
3.3847548347009e-19
5.20578812267886e-19
2.20005781085664e-20
1.83233797025296e-19
4.77758224593911e-19
1.32016790538597e-21
2.05743019489843e-19
1.51390672078332e-19
1.41133007873244e-20
1.35025183921865e-19
6.865392448046e-20
9.76091900381294e-20
2.95654759411078e-20
1.96314226470644e-19
5.03681844839271e-20
4.51901682599011e-19
1.95306518147974e-19
1.03355492835781e-20
2.48019626752358e-19
1.87590774629468e-19
1.00641060903409e-19
4.2133626954198e-19
4.0209045782596e-20
5.22928226703965e-20
9.07699904824622e-20
5.80910700270047e-20
3.80134806217753e-20
1.69620317759428e-19
6.17432189536241e-20
2.76550190910698e-19
1.87333964034535e-20
2.33651698651036e-19
1.38372789748073e-20
2.2979941887916e-19
4.36224932869023e-20
1.13580414986427e-19
8.18986108923326e-20
2.15341631003598e-19
6.05796930177565e-20
1.31680627875882e-19
9.03098670041754e-20
6.55169666823056e-20
1.84828594686783e-19
9.40850031732119e-20
3.61408499846187e-19
6.59108673826276e-21
1.3205531005864e-19
2.01360141788842e-19
5.14888427492406e-20
3.38967614332094e-20
7.96812261681887e-20
1.6569545782953e-19
1.47572811664901e-19
6.18767473449231e-19
2.59585435982265e-20
2.01977306428894e-19
2.82904171026155e-19
6.01811507685852e-21
3.20790114101192e-20
2.36060110492344e-21
4.84906414941005e-20
1.37498851082293e-19
2.84731117168841e-19
3.38457701995181e-19
1.75398258493503e-19
5.39819886577401e-19
1.89172722112953e-19
2.83514126561035e-21
2.33373722427843e-19
1.33358124534298e-20
8.58777772811504e-20
9.53350107583996e-21
6.54471689369746e-20
1.71510011904766e-19
3.79062643304242e-19
3.53664973266887e-20
7.33752510182737e-20
8.12576296378633e-20
1.21465349744024e-19
5.73668892368464e-19
5.57622547817561e-20
1.9923699906006e-19
3.10358439010494e-19
3.16176126228639e-19
1.55282703741383e-20
6.37571128642096e-20
7.67811584703352e-20
2.39336417335893e-19
1.86360105711706e-20
7.9922029578376e-21
2.35561027767658e-19
7.57658583611714e-20
7.28037809422095e-20
7.33671279254461e-20
2.91650388193909e-19
3.19633407428915e-19
1.88274288467178e-19
1.8201938701327e-19
2.25665079604087e-19
4.69555132172425e-20
1.37237477815749e-19
3.22792767677536e-20
1.60157308430757e-20
6.64795416297739e-20
2.17111321895433e-20
2.00467504346624e-19
3.88520675095285e-20
2.95450294483575e-19
2.61776260495375e-21
1.49068022573516e-19
6.55892584317191e-20
7.66361596882348e-21
1.8015639638565e-19
1.0358800050601e-19
7.29688361678038e-19
5.72578778895477e-19
1.83530329240235e-19
1.21980325971566e-20
2.64907156686599e-19
3.18255982942539e-21
6.910344560561e-20
2.42040119284881e-19
2.82962295954053e-20
2.77514885097286e-19
5.1399182064735e-20
1.35908515235938e-19
2.72907384919964e-20
6.62827516007381e-20
3.18425767994769e-20
1.03646686730222e-19
9.66604406378358e-21
5.22108569349879e-21
1.00242189375788e-19
1.01070121002802e-19
7.26933259548749e-20
3.14805893173714e-20
8.2672357394796e-20
1.06731327410843e-20
6.42824490620946e-21
6.51817543162496e-20
6.61765277912353e-21
2.34300640781864e-19
2.88569665092501e-19
5.42053957722128e-21
4.85628703089055e-20
3.09816882848707e-19
9.08105763773576e-21
1.09902002728608e-19
4.80581953050858e-20
3.20152466395347e-20
4.70417384375908e-20
1.32579668508929e-19
4.08679715774578e-20
2.230202914497e-19
1.86053531536181e-19
1.41847572332089e-19
3.21475428950016e-21
2.43610295031733e-19
4.07169745354496e-20
3.08697673598824e-20
8.83306262180361e-20
1.47879009630856e-20
1.70458426282406e-19
1.99455701249556e-19
1.51202769611784e-19
1.24841694558993e-20
3.18900509775931e-19
6.63567877417106e-20
6.79384998048981e-20
2.61480419718452e-19
7.31888806894364e-20
4.7676652271651e-20
2.29086058445016e-20
9.53640400323843e-20
3.33026179020488e-20
2.17255943664176e-19
1.22218134920107e-19
1.75447769682655e-19
1.87776468104387e-19
1.88394462958458e-19
1.05251683005043e-19
9.37434279675744e-20
1.02608269952011e-19
9.48376927442283e-21
2.65728604967308e-20
3.86290198037763e-20
1.07581257447756e-19
2.14240861440609e-19
1.57463728099341e-21
3.21782764282207e-21
3.62456125846846e-20
4.2053684908435e-20
2.70079406980221e-19
1.64636451963849e-19
2.48811562630227e-19
3.09225210290036e-19
7.09486844185711e-20
1.12188947858349e-19
1.38567307278355e-19
2.36201275088225e-19
4.34816933562143e-20
6.43021302632541e-20
9.38914864563267e-22
1.65246660322613e-19
1.60655135716619e-19
4.48801213141082e-19
1.50777544431572e-19
1.65523229937077e-20
9.5121211155057e-20
9.35492082520405e-21
3.13018660672112e-19
2.22796990871807e-19
9.62180423228262e-20
3.03759949987842e-19
3.8745283324155e-20
3.28935891123036e-20
3.12299920307335e-19
5.94086672527789e-20
1.46199464725896e-20
1.63596653311188e-20
1.85075790838573e-19
2.85093647567611e-20
9.79723158607026e-20
1.73236179775417e-19
3.27605662309301e-19
2.62644712934867e-20
4.87112551634663e-20
1.21783385586214e-19
5.4304975571597e-20
2.77759041275483e-20
1.82931065707955e-20
3.04324577035691e-20
2.76046460869732e-19
1.01239938880416e-19
8.29545875820872e-20
4.8818423262395e-20
3.98374540540197e-19
5.3295619006802e-20
2.32872622900274e-19
1.08546258026256e-19
7.53450203385942e-20
4.58162749944976e-19
6.64708673878314e-20
3.07401423399834e-19
1.18021204318789e-20
9.80846030025118e-20
9.32336636226908e-20
1.81319983681608e-19
3.61877205114263e-19
3.56818705537598e-20
1.1714589258262e-19
4.63917406301693e-20
1.03257858595584e-19
4.14386243493833e-20
1.21129981327742e-19
8.34683252034695e-20
7.98781901637562e-20
2.72068327234484e-19
5.0256907981853e-20
5.56139165906438e-20
6.49643411728967e-20
9.52585387998278e-20
1.04054959481251e-19
5.02306442431413e-20
9.490563445138e-20
3.1359563571711e-20
1.15360248951088e-20
1.91672532757096e-20
3.44199257118221e-20
5.34648348440475e-19
1.78532352625814e-19
9.66115103896371e-20
9.23547738777462e-20
7.66331447441896e-20
4.05915064908967e-20
1.19619719081295e-19
1.70972872478353e-19
5.12587277576546e-20
1.02939435096097e-20
6.04964762562056e-19
3.36049359732017e-19
3.9932965685252e-20
1.04753245205946e-19
1.50653898152595e-20
1.99042107525289e-20
5.25152576184611e-20
8.64485339560339e-21
6.79589342687088e-20
5.25790284772843e-19
4.50264241109762e-20
3.82375341828596e-19
3.28223232462291e-20
1.30818501324356e-19
5.44497424982858e-20
7.74839657697343e-21
1.16114788120777e-19
3.43815639636127e-19
2.34554847020976e-20
2.66760607593025e-20
2.22633894481945e-19
2.08714560604633e-20
1.00061926843033e-19
4.73719389619807e-19
4.30781851906811e-20
1.76061029659356e-19
8.56261382591622e-21
3.4670718014051e-21
2.52146861734858e-19
5.03309602018092e-20
3.59701624614315e-20
2.93884321437383e-22
9.5199684610995e-20
2.34400388067649e-20
2.27832691103517e-20
1.13435729502107e-19
1.76366603104236e-19
1.32275872681976e-19
9.30986281457102e-20
1.14582761377531e-19
1.60788544380503e-19
1.05159254994186e-19
6.57531717568943e-19
3.25280934740836e-20
4.15161756263847e-19
1.59803055273241e-21
1.29087438839182e-19
1.50353583993339e-19
8.17370313571938e-21
6.18422924539463e-20
1.95789959156319e-19
1.42162162680172e-19
1.15248335221985e-19
4.89715716010799e-21
2.29570106366544e-19
1.1626025856696e-19
6.15904772270589e-20
1.99678028987425e-19
3.49060068338634e-19
2.62885840476946e-19
4.08583967658379e-20
1.05283279851466e-20
8.27570417530782e-20
1.91026573084255e-19
3.08850393228925e-19
1.94157892370989e-19
9.92093253674788e-20
2.38560573821087e-20
4.74892100931675e-20
2.64854198783464e-19
4.15189769290801e-20
8.79104241306107e-20
3.56174318805104e-20
5.86094381263928e-20
2.20993739441787e-19
3.435904153e-20
1.30279731638204e-19
2.240191829401e-20
1.27052558609726e-19
5.21929198326126e-20
6.40145494692768e-21
2.08773682821396e-19
2.64845946459539e-19
5.30926013306802e-20
2.70722274899793e-19
1.58529711262848e-19
1.34141161694076e-20
1.89157685669033e-20
1.03943457977462e-19
2.71863612774556e-19
4.8943347827309e-20
6.17849675404313e-21
3.47644774762038e-20
4.22166075391564e-21
1.14253130435046e-19
6.80235323152395e-20
2.59580931887935e-19
2.66294548050734e-19
8.24388404017784e-20
2.39996698496998e-20
6.72684244996639e-21
2.61989903783e-19
1.59623480529116e-20
4.50475052738959e-19
3.77031398731168e-20
2.36980944992326e-20
2.31966263422998e-19
4.22791778360853e-20
7.15809415211896e-20
4.4472050516617e-21
4.69525698956032e-20
3.30160629233731e-20
1.02014032077209e-19
2.27560808245695e-20
5.11430131059128e-21
2.66677409279183e-19
1.79130692292213e-20
5.74059968839146e-20
4.79542567955172e-19
9.8526868250354e-20
2.48963907755468e-19
1.01330078925146e-19
1.6161091975261e-20
2.49587839024291e-21
1.74369811656541e-19
9.25071730050832e-20
7.99231351632337e-20
1.01541985045741e-20
1.88525146236142e-19
5.81059078679489e-19
5.79013420179797e-20
1.20950056790868e-19
2.40457262671679e-19
3.24423792709341e-19
6.84351748707968e-22
1.16188723272021e-19
4.91766247736102e-19
1.22852904576255e-19
1.33404019636187e-20
3.05787683731419e-20
8.33897658029416e-20
6.2210450793025e-20
3.04212018293271e-20
6.47438169559247e-20
8.65953058043952e-20
3.87778320400433e-19
9.14655317807971e-20
1.00769364676152e-19
5.65690571827121e-20
8.41333619258935e-20
7.88136311107104e-20
1.89878950810062e-19
6.0623429416243e-20
1.28620049127802e-19
2.36839877676971e-19
1.57212052982493e-19
4.52163940842811e-19
1.01902436757245e-19
3.71877963828194e-19
2.35495017385526e-19
1.74860427645138e-19
4.1919950428858e-20
1.84998560917632e-19
2.68271070727559e-19
6.65950370227927e-20
2.65352136561305e-20
3.38052036291037e-20
3.59681464032075e-20
6.9387445452203e-20
3.28904493306234e-19
9.02712731349842e-21
2.34023222431127e-20
1.61835738443587e-19
1.95463899081578e-20
8.94938642699797e-20
3.34017247548529e-21
3.22703481645524e-19
1.5071174191225e-19
4.64153454104827e-20
1.49642709211465e-19
6.45602393401392e-21
2.47320960425922e-20
7.59291604712513e-20
6.61003989085741e-20
5.1044077921929e-20
1.04534109550855e-19
8.97425941035649e-20
2.56714366015222e-20
2.70348502010203e-20
9.90150479101105e-20
2.09576337348238e-19
1.40424091053405e-19
2.01816448951882e-19
1.28623875466576e-19
4.21321991320477e-20
6.14754006146742e-20
6.7365060071316e-21
8.90978165718901e-21
1.55008982926415e-19
2.40707285175666e-19
1.49351675866693e-19
1.91643687471695e-19
1.96859511092435e-20
1.37745951223839e-20
8.40099632759616e-20
7.54027792425771e-20
3.09931161545484e-19
8.31004350451238e-21
3.58078278883735e-20
4.76036831646941e-20
3.55789983092812e-20
1.73206535387588e-19
6.44907412839289e-20
4.53103552653031e-20
1.89283379750149e-20
3.68095182458707e-20
3.49534536895089e-20
1.54802983328124e-20
1.60775986035554e-19
3.05914325657538e-19
7.43020277896845e-20
2.00293421565629e-19
1.05507067267813e-19
1.48715421057425e-19
3.13558559088871e-20
3.12183276031732e-19
4.60545907574472e-20
3.84945139962827e-21
8.6061352979865e-20
1.08739549375237e-19
2.34727241418744e-19
1.27686828199919e-19
3.60668313981092e-21
3.24286677318383e-19
1.14958100988064e-19
5.67604076210178e-19
7.57071032553463e-20
5.12560771535517e-20
2.2172120468014e-19
7.33895989236224e-20
4.09604031002357e-19
1.77787567480366e-20
2.55097211521234e-19
6.50419805089218e-20
1.21272128326476e-20
2.34790350576797e-20
1.44030601935572e-19
3.93149415095846e-21
1.05749539438257e-19
8.68495478200885e-20
6.38174314497647e-19
3.84302134600494e-19
7.51513175895523e-20
6.88012654845317e-19
1.41362786305186e-19
3.57750159729627e-20
1.17210483131861e-19
2.53570043314418e-19
1.33290252022861e-19
7.01410142748341e-20
1.02092387861534e-19
1.6649142831829e-20
1.52863222649411e-19
1.93291135799663e-19
1.00942783608445e-19
3.04847356928687e-20
2.96054722599905e-19
1.12058167250966e-20
2.73785312235359e-20
1.65531646277562e-19
5.56834161878011e-19
2.71786457533334e-19
4.03626692906861e-20
2.06875088859771e-19
5.41894956320962e-20
2.49115673247312e-19
9.68859856919939e-20
2.32232965613781e-19
3.52630886824476e-19
3.56454569345199e-20
1.27707414492105e-19
2.17783229172198e-20
2.52145702143164e-20
5.59013018871624e-20
1.62816992154113e-19
1.62012758314449e-19
4.94586198938895e-20
1.42465481770457e-19
3.41906812676911e-20
1.75754622432709e-19
6.59253085745346e-19
1.39532708288201e-20
1.16316732156685e-19
4.1186648347734e-20
3.89877183976734e-21
3.23063272926744e-19
4.96868812232883e-21
1.00348999677812e-19
7.47766984092864e-20
1.53349222129554e-20
7.42408063625865e-20
2.12669984084618e-19
5.97973313975615e-19
6.09554588277409e-20
2.2711129666604e-20
7.15033957751466e-20
3.35904478500716e-20
4.52831289211088e-20
8.18653079274922e-20
5.92740346482348e-20
9.12976427233841e-20
6.80865539165436e-20
5.57341802262637e-20
1.12066594505673e-19
1.13838779695477e-19
4.49192385499471e-19
1.99137596101689e-20
2.30304749147772e-20
8.17482229256184e-21
2.29299180850098e-20
1.85848822163176e-19
9.80251884803692e-20
6.89051109312907e-20
1.19578981884395e-19
6.4845116978637e-20
3.16720868758339e-20
5.72413041095137e-20
9.01909944927805e-20
7.97668387235872e-20
1.26859192631201e-20
1.3826317612532e-19
1.81513695606889e-19
2.02964484697344e-19
3.46461687977717e-20
6.80823974243763e-19
2.27712546657171e-20
2.89940764207051e-20
1.03900751836889e-19
2.37739825194413e-20
7.48979887958056e-21
4.76055021214939e-20
2.03785218825508e-19
3.86178369461956e-20
8.12019770621601e-22
7.93950604951053e-20
1.92515083553538e-19
2.00648633463137e-19
1.83468526394222e-20
6.31650904488776e-20
6.83062822846022e-20
3.0448725515851e-19
4.24738971589769e-20
5.29488168657536e-22
3.39293678289469e-20
3.53256413200678e-19
5.18572154259114e-20
2.60608711681164e-19
1.08735216317488e-19
1.10514926601554e-19
7.31899370924149e-19
3.41891827847698e-20
9.51926723149948e-20
1.42535789495071e-19
3.27263988664503e-20
8.66012562860246e-19
1.30523639064512e-19
2.21560599866493e-22
1.79582703798481e-19
3.42164200263852e-19
1.2053805679075e-19
4.92167630451068e-21
9.37784812962555e-20
3.02916970361037e-19
4.94705282124353e-20
1.56481547536337e-19
1.86497469834535e-19
2.2639790467026e-19
1.14567784725797e-19
1.68353123311509e-19
4.85356333202067e-19
7.75121498068286e-20
2.3801881115638e-20
8.94365561768954e-20
8.82834302831223e-20
7.89538561658421e-20
1.95269317322172e-19
2.45661990252334e-20
6.55330219796968e-20
1.71517256475726e-19
4.77878116286666e-20
1.18678656326075e-19
1.06598813852224e-19
5.43158151176041e-20
3.01917551253757e-19
5.77873165119383e-20
8.39812045719714e-20
1.3520304109215e-19
6.38039250091061e-20
9.55123739637486e-20
9.33337110604212e-22
1.25820728318148e-19
2.87886266147269e-19
4.36221973968814e-19
1.79394878285244e-20
1.19637177456583e-19
1.28892918113032e-19
4.67955768903668e-21
3.1764733675657e-19
5.21001659188955e-19
2.22806143405911e-19
6.80978268467901e-20
3.15771182989122e-21
8.39785877022666e-19
6.40171317596237e-20
5.20570853098264e-21
6.5893346724056e-20
1.57476036151393e-19
6.9455507751902e-20
2.33947368036656e-20
3.77641658652033e-20
9.60172751435749e-20
2.36513968880754e-19
2.47242642569024e-20
6.54591380828902e-19
2.13248726280496e-20
1.03102719255824e-19
2.99965934453434e-19
4.38052800366224e-19
1.61666843791769e-19
1.39841941152024e-20
2.25908347394907e-19
3.61750697998253e-19
1.88329128465353e-19
1.22946855692132e-19
1.84884722644125e-19
1.06792469554984e-19
2.09750884195325e-19
4.49743612324669e-20
6.8132833474424e-20
2.09041619940995e-19
4.60174146756469e-19
4.95317131535427e-19
4.76646095397662e-19
2.8129530078309e-20
1.12938814518594e-19
3.37854376018347e-20
3.29472775678138e-19
3.58982250725201e-20
3.26055728220188e-19
1.07581409586206e-19
7.96800780655341e-20
1.35286721660515e-19
6.57708899647441e-20
8.1386255334107e-21
3.26635369054371e-20
4.3401335065587e-19
4.35081430638915e-20
4.65375548886035e-19
1.51812438565827e-20
5.20675558844884e-20
1.01290583358115e-20
1.17980091556805e-19
1.11927137303231e-20
1.2986298897453e-20
3.04236835459525e-19
1.32222172704144e-20
9.79816292718383e-20
1.66460334975392e-19
3.16134019945364e-19
1.06647756748049e-19
2.44546906933803e-19
1.62699014040307e-19
1.80968040541271e-20
4.04439650555331e-19
9.69011584636825e-20
3.92916637985164e-19
5.16071741141357e-19
5.36708433028778e-20
1.21394248593255e-19
4.10914196421259e-20
3.12968799729656e-19
1.32822176368286e-19
1.6956640557215e-19
1.24566958807523e-19
3.48335009493492e-20
3.49294226415587e-19
3.42504976901363e-20
1.20774827388071e-19
1.99024451370568e-19
2.32029004067898e-19
4.35454356992373e-19
1.30495331805521e-20
2.04832411662537e-19
3.01192442441888e-19
9.93104845098261e-20
1.82296798540742e-19
1.11380403700695e-19
1.99395204400882e-20
1.13967121113462e-19
1.93448701817178e-21
5.17568368240196e-19
9.79785238264108e-20
4.28008373460051e-20
2.90232945541746e-20
1.44468619093481e-20
5.99407746442974e-20
1.44166241299298e-19
8.33368213632931e-20
1.8515367121038e-19
2.36772117975994e-19
4.41813092808804e-20
1.02198613267547e-19
2.03736898028836e-19
1.19743856589097e-19
1.20292057945655e-19
1.21004846162786e-20
1.12185252432707e-19
1.48835208466365e-19
1.58336077709005e-19
7.98901938427334e-20
7.3273448834184e-20
9.64682426915002e-20
5.94075868037021e-21
3.22114038771087e-19
2.1929532956363e-19
1.29364146976597e-20
7.19196267827844e-21
1.33127567479609e-19
8.33394069007882e-20
2.74486494728829e-19
7.81866403650438e-21
5.0516097826425e-20
1.5143545866613e-20
2.96733208916488e-21
1.31275019327624e-19
4.48075999464099e-20
1.83805694133215e-19
1.29716307973692e-20
1.11559425378677e-19
1.2836477688935e-19
4.62952863279562e-20
4.23853712417709e-19
2.19339302278118e-19
1.42917862969769e-19
7.5324883892072e-21
3.07802337364915e-19
4.64711620573198e-20
1.18534664596188e-19
1.1846017414739e-19
3.71605069313906e-20
1.32217632305441e-20
2.40850917647701e-19
5.0278293066157e-20
2.24691130730164e-21
4.0651156071959e-20
1.01575726935848e-19
2.37965505880933e-19
1.90123658965923e-19
3.47469388736856e-19
2.84558601185117e-19
6.85474583917676e-21
3.73409466185671e-20
1.78038249719618e-20
3.98639706490904e-20
4.86367080530406e-19
3.13992484875309e-20
6.29617100875715e-20
7.9711812599784e-20
6.89378884813414e-21
1.46071155566885e-19
1.64960435267431e-20
3.95465710045919e-20
2.11062255411995e-20
1.72136233445771e-19
1.45697474077248e-20
2.32810380804138e-19
1.63877922282116e-19
3.36939008039847e-19
3.66538332375066e-19
4.62156858057509e-20
1.58047249478479e-19
1.49970363512916e-19
2.90228975977577e-20
1.08435405474776e-19
1.52609221802955e-19
3.83789335340668e-20
1.70405638580679e-19
8.25984808765065e-21
2.56916555326216e-20
1.9199207744781e-20
6.38082923291114e-21
1.37593849681766e-19
2.75123864127596e-19
9.26149349698876e-20
3.72437845912879e-19
1.41629298567432e-20
1.63341410964716e-19
1.01426356988128e-19
1.77344481494908e-20
6.559750293731e-19
1.49177159675e-19
4.20112942049799e-20
5.71247330425305e-20
3.17679933236018e-20
5.62311229256517e-19
2.75572333728138e-19
2.44329336641381e-20
1.05930420409985e-19
3.64425895454823e-20
3.25346182092457e-19
3.62864394887501e-19
1.14541835495902e-19
1.46731735149714e-19
6.23062317364459e-20
5.79119593297138e-20
6.37313010355582e-20
2.96297029398045e-20
1.09078075600091e-19
3.22394211362563e-19
6.80085870925524e-19
1.1956639417309e-19
1.94108098143993e-19
9.64309432931799e-20
8.15628548915415e-21
8.10355157450842e-20
5.82152140102479e-19
5.06653140588009e-20
8.1112177315456e-21
1.38694170152987e-19
4.2859047511082e-20
4.37370669957614e-20
9.24819220297173e-20
3.62613027999437e-20
4.78011470078378e-20
1.66537949512379e-19
2.71405579635062e-20
2.47870020030172e-20
2.08331273802076e-19
8.70633708994917e-20
1.52081460996407e-19
2.93970264509325e-21
2.02415858198448e-19
2.4778002941526e-20
2.72244175243024e-20
1.58480773235712e-20
1.52568712221022e-19
3.70264436964853e-20
5.92705676607347e-21
6.41232329735617e-20
9.93586198037642e-20
1.38719858203523e-20
4.16407388451392e-20
6.73359830186429e-20
2.0116820147778e-20
1.39026685534225e-19
1.63723825659844e-19
1.1780539644925e-19
3.13834738449165e-19
8.7858225502815e-21
1.07247007420603e-19
1.24134698789135e-19
1.12608902383579e-19
1.10352502859736e-19
2.58096602489472e-19
9.43171217002949e-20
2.57076937401249e-19
3.17383529890624e-19
5.68749820516241e-20
6.68642171842506e-21
2.25037923850995e-19
2.20733332497314e-19
8.11339183308953e-20
1.51090694862468e-19
1.38208551082292e-21
1.47198631707224e-19
4.94808897331008e-20
3.41591939972731e-20
1.53870907714251e-19
2.36561526218122e-19
3.14943471019062e-19
1.82942328693087e-19
1.49384482134207e-20
3.04386178235148e-20
2.26450147764273e-19
1.71690902669218e-20
1.8135682823072e-20
2.55069214036749e-20
1.58677491762847e-19
1.7640779400744e-19
8.24288069037994e-21
1.58292541366088e-19
1.13227092734198e-19
8.3301787785754e-20
8.6838791778638e-20
6.13192581844213e-21
7.61344676584214e-20
2.05878568373388e-19
9.86473838018098e-20
6.35028169500207e-20
5.9995176582775e-20
3.19706147513738e-19
3.3597325325967e-20
1.50059488086073e-19
8.2135572257568e-20
1.07537450909338e-19
5.3980425569408e-20
2.48961680338945e-19
1.50112829324096e-19
2.64324219337668e-19
1.20092469559417e-20
2.15630200989807e-19
1.46654570678396e-19
4.09938500403389e-20
4.44570518808754e-20
1.4097015669236e-19
2.16710798660064e-19
5.40919961044526e-20
1.36388902258781e-19
2.77721565463043e-19
8.34656769497862e-21
6.10735152190747e-21
8.90539093740401e-20
1.41330241911229e-19
1.93815115659014e-20
5.62403518021138e-20
7.95527991747077e-20
5.53983404344297e-20
1.98500913687601e-19
2.8444230917112e-19
2.30016747696619e-19
8.53536848780698e-20
2.0447137169808e-19
1.44842533427127e-19
2.66154875043672e-19
9.60633622972025e-20
3.26640635807309e-20
2.03868010920688e-19
1.29267056189539e-19
1.25966425327035e-19
1.79631436778248e-20
3.42197079052909e-19
2.51530578895611e-19
5.44483460445967e-20
5.74077102070581e-20
3.39211663027579e-19
1.293997030162e-19
7.26919567439217e-20
3.97853715628144e-21
3.17334545141714e-19
2.20710297639586e-20
3.36105401398959e-20
3.0221999309329e-19
2.10406082356482e-19
9.11709690582321e-20
9.22976094189527e-20
1.92772979148204e-19
5.73744411045899e-20
3.89710291554783e-20
4.51643045844897e-20
8.12042382662707e-20
2.74856523554026e-19
4.38517885063779e-20
6.100740745191e-20
1.80064632227023e-19
1.49742019551134e-19
6.52478465649649e-20
3.92149612598908e-21
2.97022229240336e-19
2.32716531647687e-19
2.1629224632716e-19
2.46962192475606e-19
6.39176804150534e-20
2.01087105036326e-20
1.43817617293954e-20
2.7868707016702e-19
1.3976847242113e-20
3.1207034982176e-19
1.40294351654163e-20
4.37968899593206e-19
3.14189497334434e-19
1.95439569009881e-19
2.82699401987246e-19
2.64173181777124e-19
1.89583796865179e-21
8.03438549057875e-20
3.05531095973129e-20
1.92541900297018e-19
1.00167338034803e-19
8.06803870716298e-20
2.7216707308446e-19
3.43760225501889e-20
1.34439428296214e-20
7.75795649599069e-20
1.4125096588751e-19
9.22767808690938e-20
1.25995930865726e-19
6.37621416492948e-20
6.2979053277127e-20
2.42928416218504e-19
2.61671232282143e-20
3.19879682684634e-20
7.80948926544113e-20
2.71913605809739e-19
1.04234117914278e-19
1.93718256032411e-20
2.48031122077461e-19
8.61157967273164e-20
1.03973177825549e-20
1.03070389621642e-19
2.9149812528751e-19
9.90424491781484e-20
2.54634041581644e-20
9.46729416210311e-20
1.59414357985401e-20
9.53357649029255e-20
4.28082498778339e-20
3.0437134091797e-20
7.05075372966259e-20
2.16619568384856e-20
5.62792677836376e-20
8.72062777266516e-21
2.77488008008282e-19
2.60212178822307e-19
1.78129389994724e-19
2.98800685865743e-19
1.02268031387358e-19
8.53562230609864e-20
5.20997933817646e-20
5.30970224179422e-19
8.44275895102584e-21
1.15024664063661e-19
8.44690338010221e-20
5.49224681174006e-19
7.84048616120987e-21
1.36859077343695e-19
1.63055654983102e-19
4.41725491306977e-19
3.07640664347134e-19
1.10229325540422e-19
4.19529738332453e-19
1.60906190965009e-19
8.55728377208689e-20
2.8762936354273e-20
1.09541536675431e-20
1.35722713280306e-20
8.37518746350838e-20
1.61887425689558e-19
5.34483989565931e-20
3.72834533767164e-19
8.28733738717478e-20
4.41082736892732e-20
1.21660632386091e-19
5.39868596538343e-21
5.1519892238766e-19
3.2355420563951e-19
6.91741272000387e-20
3.2017885762759e-20
2.17240638123551e-20
3.88966751998e-20
1.29210746858013e-19
2.19549641707896e-19
7.08368024264496e-20
3.43420577182175e-19
7.16605051528342e-20
8.25859101206386e-20
2.16370850614247e-20
3.97683070768551e-19
4.28826356296748e-20
9.84927117661814e-20
1.81562354905126e-19
2.67192081914466e-19
1.11334593896031e-20
4.46902531349239e-20
1.99033135730438e-20
6.74000140047174e-21
1.02455244398109e-19
2.23893392777351e-21
8.90222241924084e-20
3.44283863742182e-19
1.28577736284848e-20
3.51504838539534e-19
2.33622910336584e-19
8.83971305568334e-19
1.44445180864367e-18
7.35130308233728e-20
5.52569985490583e-20
1.7967840801349e-20
3.20447258717191e-20
8.90737355213041e-20
4.71596143007025e-20
1.93035049807402e-19
7.58188946175386e-20
2.42547320610717e-20
1.76971747287935e-19
2.99559058428245e-20
6.28146999089277e-20
2.14355623823253e-20
2.26215931257041e-19
6.19041195612461e-20
3.18355755439025e-19
5.53034278165515e-19
1.78944296189484e-19
8.1461733213987e-20
8.8928900812119e-20
1.14313792178725e-19
1.89801082334975e-19
4.53925373862093e-20
1.13526035124277e-19
2.27692378543406e-19
2.66993584008789e-19
6.26657330636372e-20
3.52156609519708e-20