/*--------------------------------*- C++ -*----------------------------------*\
| =========                 |                                                 |
| \\      /  F ield         | OpenFOAM: The Open Source CFD Toolbox           |
|  \\    /   O peration     | Version:  v1706                                 |
|   \\  /    A nd           | Web:      www.OpenFOAM.com                      |
|    \\/     M anipulation  |                                                 |
\*---------------------------------------------------------------------------*/
FoamFile
{
    version     2.0;
    format      ascii;
    class       scalarField;
    location    "0/lagrangian/dsmc";
    object      ERot;
}
// * * * * * * * * * * * * * * * * * * * * * * * * * * * * * * * * * * * * * //


99997
(
4.97611521803132e-23
1.40729733053769e-19
1.2887556334106e-19
6.15242856335888e-20
3.86847055907488e-19
2.21508340646205e-20
7.58401194384474e-20
1.47618393513613e-19
5.5582663334308e-20
3.72799579726323e-20
2.07836895664663e-20
1.52688765286972e-19
1.39281507751441e-19
5.53715113888481e-20
1.26150349161111e-19
1.84547201711855e-20
8.25309564953484e-20
8.3921332634936e-21
1.22347168929239e-19
3.08802902068906e-19
7.67319798053862e-20
1.74204902859801e-20
2.00687783742117e-20
2.01721289208887e-19
8.90864623303901e-20
5.98502813203696e-20
6.51165118766446e-20
7.86904571008329e-20
2.8240643870585e-19
1.30469144233081e-19
8.54475694025091e-21
3.1789668948685e-19
8.97087126941245e-20
1.11805984599866e-19
5.88699184228229e-21
1.30898429384323e-19
1.71660223630127e-19
5.85426993198008e-20
1.377665817259e-19
2.81381919360001e-19
1.03970387274567e-19
4.35317351914815e-20
4.56887810222939e-20
3.76713489294117e-20
6.245419543172e-21
8.91694624754889e-20
1.49709593953042e-19
1.52555209535304e-19
1.72677621766761e-20
1.38292265178645e-20
7.3323612846956e-20
6.35955934266605e-20
2.81012366581092e-19
3.69270722205628e-19
4.06983845328233e-19
2.61100896733891e-19
5.8612553848774e-20
3.11701440319533e-19
4.4772975552322e-19
5.20931601036565e-20
4.59580527073445e-19
1.20415192911518e-19
1.29154031058574e-20
3.90218284980397e-19
1.44290543278493e-19
2.46491693518333e-19
3.50313403206655e-20
4.98852908488829e-19
1.47232615909397e-19
7.59724525727443e-20
7.20464520587887e-20
1.05015200352375e-19
5.30190824169021e-20
4.7221208516519e-20
4.81154137006127e-19
9.43147066011577e-20
1.61612298462286e-19
3.52359005001654e-19
6.39748703658217e-21
4.03664545686679e-19
1.45120861635705e-19
6.27299954990783e-20
2.57124422116939e-20
3.78832656482924e-21
1.14602299996922e-19
2.94849371223705e-20
1.07875158142842e-19
3.13496149934641e-21
4.4372927009024e-19
1.43984440009051e-19
5.56191313325647e-20
1.25102532307098e-19
1.63352098600744e-19
4.05629531672185e-20
5.95955265522684e-20
6.57603509814377e-19
8.30348211703619e-20
4.3478176652328e-19
1.58399458395135e-19
1.19598661459277e-19
7.53572342763268e-22
5.01182407621765e-20
3.87436919312635e-20
1.88087336135687e-20
1.94140829399167e-19
2.19406768524961e-19
5.33312453673312e-19
4.04352904312495e-20
3.28277400105593e-19
7.43119434090198e-21
2.65199247479032e-21
6.19430819956298e-21
4.07466430587353e-19
1.03202580983589e-19
4.43141965230729e-19
1.59161524153156e-19
6.59469921931749e-21
1.43759360352301e-20
3.2567398404185e-20
1.00951134941652e-19
4.82993653615503e-20
2.77786552147579e-21
1.04585462132465e-19
4.76510803216353e-19
3.77794929698261e-20
2.00812266614399e-20
3.44810792384697e-20
7.52374566549204e-20
1.79168743911127e-19
6.33997761733764e-20
1.19022064123638e-20
1.55130433979077e-20
1.22937109516411e-20
2.17651272323315e-19
1.95924190687578e-19
2.10325580050374e-19
1.36004420544218e-19
2.9166912871689e-19
2.7906239103646e-19
6.19544049685778e-21
4.71773378166352e-20
4.28696954870089e-19
5.95708011211935e-21
1.62733565026203e-19
3.66917608818964e-20
6.68784078864146e-20
4.45794065634586e-21
4.60340148110768e-20
2.00964175790399e-19
9.35483785136096e-20
2.54321991610096e-20
4.82022138012978e-20
1.10592719539375e-19
1.78354166471774e-19
3.85587383192518e-19
1.03635762398337e-19
1.88183128418041e-19
1.40300506831934e-19
7.76560524110258e-20
5.21553173439692e-20
8.97470612263902e-20
1.25894176127914e-19
1.14768391748177e-19
2.26820443949579e-19
6.53655176486196e-21
1.40920553227485e-19
1.07827625536737e-20
2.15748208529732e-19
7.3961327214607e-20
5.06536698280563e-20
8.50122999019591e-20
3.60974075386596e-19
1.76338764343574e-20
1.67585014407163e-19
2.29842943970033e-20
6.42839222202321e-20
5.99737917169836e-19
3.68558704644387e-19
3.0316440154022e-21
2.18935713860154e-20
1.84107931953514e-20
2.1384588657463e-20
3.80253063089903e-20
3.7361939339001e-20
3.39118950594467e-21
2.65307321331995e-20
7.62899163552508e-21
4.18446133472432e-21
6.65237544812e-20
1.10716906372891e-19
2.36151041381304e-19
4.8285758807033e-21
4.08675292584486e-19
4.24217430003923e-20
2.42857572699648e-19
2.04634754309458e-19
2.02784355819738e-19
1.01495892318321e-19
5.48617864168658e-20
2.50091200040836e-20
1.68586168684121e-19
7.9087885986393e-20
3.50364438381647e-20
2.05438345237693e-20
5.93051223447405e-20
1.72255932284362e-19
2.10880133859771e-19
3.2440594255315e-20
2.82313073640373e-23
2.00974651575719e-19
3.35278976050547e-19
1.84743328729077e-19
3.75502246765793e-19
1.27068345859465e-20
4.38429800486013e-19
8.36519793305915e-20
2.28536326650908e-19
8.93049914213912e-20
6.24570581858534e-21
1.34277996820612e-19
5.74825321200901e-20
9.28289955005713e-21
4.91766540399054e-20
1.6313633612725e-19
1.02060750111973e-19
8.83489137567278e-20
2.83473686881687e-20
8.33967999488641e-20
2.56683607520191e-19
6.57921464641117e-20
3.19715228689276e-20
7.3234152138867e-20
3.01172886410899e-20
4.27418741651974e-20
5.92684007371944e-19
2.21877848432175e-20
2.68655636043856e-20
2.09291733820699e-19
3.81147040504536e-19
1.0957866209333e-19
7.05341568968492e-20
4.162108798582e-20
2.65314086570556e-21
1.09751641436101e-19
7.22803081097607e-20
1.5450874785316e-19
1.67058905660761e-19
1.44457979809082e-19
7.69944704701339e-20
8.38479430161539e-20
1.39632473366339e-19
6.8248608870128e-19
6.73194605613672e-20
2.10281963557778e-20
3.63425845340777e-20
1.16127204166773e-19
7.06782120091514e-20
5.76037228516973e-20
1.16902397629843e-21
5.11570116840431e-21
4.80045121380812e-20
1.06241900499856e-20
3.26826597340184e-20
2.19689057800482e-19
6.1011254594184e-19
2.48083515421903e-19
4.51414935891231e-19
1.41587189817748e-19
4.60521233663985e-20
8.08821318650113e-20
3.1985171772536e-19
1.16740025985602e-19
1.70041725034514e-19
2.09669276826822e-20
5.3921697823486e-20
8.22466216467048e-20
7.41466232781355e-19
1.21275231221926e-19
8.78113072621921e-20
2.17276841950738e-19
1.92074024380653e-19
1.39073456954433e-20
4.29347503533967e-21
3.38654761121011e-20
6.13824050181742e-20
3.64496461338515e-19
6.4909417498497e-19
5.64429628395533e-21
1.81634205418805e-19
9.2092069862119e-21
5.68265775509138e-20
1.4722320610626e-19
1.67911630616822e-20
2.12455415794307e-19
9.42367431319624e-20
9.97513978500319e-20
1.67904919625855e-19
4.30199427971028e-20
1.01349946260266e-21
2.25158376799857e-19
1.84424610838028e-19
1.22842991473477e-20
2.32979456744884e-19
1.9472039593416e-21
9.85819257834538e-20
8.55791504810302e-21
9.13917768527628e-21
1.16747646285732e-19
6.3949155844852e-20
6.12737113259096e-20
1.17470150211048e-20
1.33151217212686e-19
4.11361488906152e-20
1.68520692781541e-19
1.83918431198721e-20
2.53850805412269e-19
3.26710853408045e-19
2.4080237097221e-20
1.81745434300731e-19
5.50445402951064e-20
3.10690364844861e-20
2.82563578993229e-20
1.8885390248127e-20
1.8937799470325e-19
5.89466116139165e-20
1.67617008806882e-19
4.78577621691927e-20
4.19102765143082e-19
1.69214005735252e-19
1.5943809421911e-19
4.812338813661e-20
2.42054769970577e-20
1.60516066357187e-19
1.7962457571681e-20
1.32985342588809e-19
1.67791705386054e-19
2.76457866325479e-20
6.00902091204221e-20
1.44453189774073e-19
7.80309382670151e-20
2.70240258231217e-20
1.21657441978535e-19
2.22226516129335e-19
6.69022685162086e-20
6.48610215185619e-20
2.13370473662312e-19
2.56460284608525e-19
4.24323198879546e-19
1.14354167064236e-19
8.05265657277161e-21
5.51783392757559e-20
1.86130829516991e-19
2.5549481578651e-20
1.52146565739558e-19
4.3085342941547e-20
3.48386704389738e-19
4.77647259782773e-19
2.16513540289241e-20
6.15742380419772e-20
1.1864501978816e-19
3.08511141715144e-19
1.27749004103952e-20
5.20638867424412e-20
1.86719446909758e-19
2.16053203310744e-19
3.19508378763521e-20
3.66752909227474e-20
5.0794345682863e-19
1.77183710180077e-19
4.85531559320223e-21
6.53762485845674e-20
3.89830878782701e-20
2.06994199209097e-19
1.41092481570884e-19
5.31109069528395e-20
7.49987199028536e-20
3.34315207668483e-22
1.05745639029254e-19
4.54259037011703e-20
4.93879099858825e-22
1.59078104509108e-19
2.99471145217525e-19
1.23179439652787e-19
3.60479850285988e-20
1.07504236780548e-19
3.44312913346266e-20
1.51796117573059e-19
2.45459178448714e-19
6.32487379338031e-21
2.60680491662101e-20
4.77989562614229e-20
2.96033098228179e-20
2.71387811971152e-19
1.56334163853553e-19
1.04130804439774e-19
1.88607003835544e-19
4.49218925574164e-20
1.39452124494984e-19
2.69304680914589e-19
4.22098501608671e-19
2.74970726239801e-21
1.09183447937526e-19
1.83985589688222e-20
1.04337521680701e-19
2.05171235189556e-19
1.15081854829133e-19
2.43191180628188e-19
1.47108648175395e-19
5.76066130573853e-21
9.90503366255999e-20
3.71953780762222e-20
5.96300207128904e-20
1.39076351602495e-19
1.89545537110377e-19
5.55886398083703e-20
2.49872798687829e-20
4.35407578075674e-20
3.63178800887936e-20
2.33579636157934e-19
3.3725189192331e-20
4.92887029129912e-20
3.5735616984317e-21
3.89869119600948e-20
2.84787949358662e-19
3.50160082022873e-19
1.64240379130191e-20
1.59704915050653e-19
1.27119676568855e-19
2.35793951816339e-19
9.76557547723011e-20
6.49030456145063e-21
3.56316259818771e-19
2.07458966344179e-20
2.1475698441547e-19
1.02963533241788e-19
8.22256513971604e-20
1.25580135036729e-19
1.32215785111281e-19
9.87618680468747e-20
2.62476471047908e-19
1.27839200056053e-19
2.37980656057602e-19
1.49103277503482e-19
9.20281234438108e-21
7.58043521056891e-20
1.17566044282837e-19
1.40105488454205e-19
1.63227512163433e-20
8.29155897263609e-20
1.810066719029e-19
1.70528045834649e-20
1.29935473302265e-19
4.66398313324382e-21
2.06368722074496e-20
3.13878300036218e-19
3.92297424124005e-20
1.9029070998506e-20
2.12923244371535e-19
8.8368978254572e-20
3.849296261474e-20
4.04788201944393e-20
1.75157189041691e-20
1.15275274891303e-19
1.44089409666237e-19
1.24071349496703e-20
4.9983336130464e-20
1.02626796787637e-19
7.14370321261986e-20
1.01073483944585e-19
1.58487378478205e-20
9.40598427907559e-21
7.28896294181319e-20
3.97614163608641e-19
3.47874462722059e-19
3.66507764310409e-20
4.38488086894678e-19
2.29232973201481e-19
7.40972761398355e-20
8.02314624517111e-20
1.84955689275907e-19
1.73535075729577e-19
1.30463893546073e-19
6.09658372778287e-20
1.16009670214165e-19
1.3203559272259e-19
2.69739115814735e-20
9.09948313771683e-20
1.72233543307901e-19
5.71072415759467e-21
7.13322682755518e-19
6.75162493993969e-20
9.3233028245115e-20
2.45511162214143e-19
1.17501826861412e-20
9.98705853937431e-21
5.69918678945887e-20
2.46024106676085e-20
2.52732299043293e-20
3.46918479349185e-19
1.21540956312891e-19
1.19892764730421e-19
3.94654476491468e-19
2.97509759064134e-19
4.44388528813829e-20
3.10069790030647e-21
2.88959194733022e-19
5.58275019380986e-20
8.05751583884277e-21
2.78337753857132e-20
4.72593243945186e-22
2.12383941512384e-19
7.29155459551076e-20
2.22008898839708e-19
2.79609694053799e-20
2.71327947288683e-19
6.45678388406445e-20
1.82433882449009e-19
6.94088811384211e-20
4.9881947501288e-20
7.57957332595852e-20
1.35291536291254e-19
2.61820799275267e-20
1.76359137831912e-19
7.04448096735032e-20
1.40951602325412e-19
1.41565278389161e-19
2.14228300910938e-20
4.01020755847392e-20
7.93788554755642e-20
2.73339047298615e-20
2.85943180056913e-19
2.41901622756188e-19
9.64196790465913e-20
4.37422633339553e-20
1.29838543906166e-19
3.40838990989913e-20
7.31902006177116e-20
3.05003660598522e-19
2.11954708471548e-19
3.50715873842268e-20
5.66965927730677e-20
2.00522299401724e-19
1.12160331863782e-19
2.37675806735534e-20
2.38264684507254e-20
1.20346958601888e-19
4.86103478378582e-20
1.75538100095351e-19
1.92619483138726e-20
2.9330202867261e-19
1.49027334031963e-20
1.6470625729446e-20
2.61995029925572e-19
1.20328634041003e-20
1.17632162949014e-19
1.47114676796026e-19
6.04767046178113e-20
1.57878085770496e-20
7.4351188402526e-21
4.17442537976147e-20
9.15404398716927e-21
6.67630644004383e-19
3.17704782065777e-20
8.1375823768423e-21
1.0879069168315e-21
2.11579340719652e-19
2.1529937037534e-19
3.64462253028098e-19
9.09608476321656e-20
1.14215685903848e-19
3.41596976038282e-20
1.25632872157459e-19
8.56434847542316e-20
8.16587508998977e-20
3.11626587835231e-19
1.11531099258236e-19
5.72711050490196e-20
1.84606263687138e-19
7.86931753748389e-21
1.61731887482271e-19
1.81384465759759e-19
2.97365682672286e-19
2.35954230126277e-19
2.00111675036394e-19
1.86537439146419e-19
9.02098451763309e-21
1.48902879377958e-20
2.01970208252883e-19
2.15584227614147e-20
8.49054345305479e-21
5.05336518880666e-20
1.17583029241797e-19
7.94093461160942e-20
6.43397421925702e-20
2.77595059353656e-19
1.71585911387553e-20
1.39355974196204e-19
1.25178674694459e-19
2.80977826273875e-19
3.1282830253769e-19
7.91433813641037e-20
5.29738199341058e-19
1.14017836996266e-19
8.82951351633569e-20
8.32348224489705e-20
2.6182361809287e-19
9.734993323348e-20
9.89786556192648e-20
9.3395248442621e-20
1.76083468121484e-19
7.24612135956086e-20
1.02499449318026e-19
1.47514449717659e-19
2.74765101768349e-19
1.22345431763978e-19
2.81055966757069e-19
4.15974141729501e-20
4.08075932186952e-19
8.0584403974461e-20
3.4490192875486e-19
7.48310562985961e-20
1.48872876235861e-19
3.13292311291756e-20
1.96311779888483e-19
2.56817428209069e-19
1.79819056237055e-19
3.73479327070744e-20
1.19343156137206e-19
2.87030206305786e-20
6.6152327529627e-20
3.5785766478079e-21
3.16653074812163e-20
1.32988792030366e-19
4.54018376885146e-20
2.57882712686289e-20
6.24844806724258e-19
2.06317449257066e-20
4.99776171138747e-20
2.21182616620618e-19
1.41959896570142e-19
7.02501810489786e-20
2.07841395353677e-19
1.44956997527303e-19
1.48919502424209e-19
5.46605668900053e-19
8.98735567206684e-20
6.58789429664102e-20
1.90924490269985e-20
6.62758186647247e-19
3.79658428025663e-19
6.58290248262574e-20
6.07550767987666e-20
1.63964434244291e-20
3.06924327570595e-20
2.11007896749362e-20
1.16428996552284e-19
2.41821528300597e-19
7.71317469077932e-20
6.00448900124442e-20
3.33540243190302e-19
8.51756678948804e-20
2.49331297313279e-19
1.72878214076627e-19
2.75565263495254e-19
1.35540893994891e-19
3.7274518578713e-20
2.02663998080171e-19
4.02379607261963e-19
9.90438459472314e-20
3.13412865999676e-20
1.76926755510564e-19
7.49672302501141e-20
3.57649937495259e-20
3.91589857401601e-20
4.63223688654527e-20
3.30040043798916e-21
3.27562134172694e-19
3.56591373663007e-19
3.31780208527361e-20
3.20611929322791e-19
7.73495997168528e-20
2.7297916306298e-19
7.51924388427917e-20
2.61506994818363e-19
2.77784024083672e-20
2.42792708434827e-20
1.83270352515438e-20
8.62702209873162e-20
8.12929069855502e-20
5.58186296747144e-19
3.27915546404725e-20
9.45023438896671e-20
6.13710731050459e-20
1.72532854609136e-19
2.03068875006554e-19
4.84266825165673e-19
7.10465080429233e-20
4.21822603133126e-20
1.26274022042903e-19
3.19837874179783e-20
1.40807369585565e-19
1.14970733874689e-20
4.47785742475824e-20
2.01030429747424e-19
1.77284776460637e-19
3.71454888817993e-20
4.020090589017e-20
5.31710767593007e-20
2.06118444305607e-19
4.01348766937418e-21
3.72948467872548e-19
5.456699238554e-19
7.44741787684031e-19
9.33531797373019e-20
1.45740205540146e-19
3.49135452154172e-20
3.27510096017709e-19
6.47352085523503e-19
1.2120840805986e-19
1.39393115715697e-19
1.71796899669657e-19
2.23325453947445e-19
3.02146110536999e-19
2.94946556349346e-20
7.90727706898848e-20
9.14098198643022e-21
9.64179419437345e-20
9.85336261111976e-21
1.37739595389674e-21
2.08818586059756e-19
1.54417527920717e-19
1.30226665704568e-20
9.4261385841219e-20
7.78990132176995e-20
7.47780597223481e-20
1.04645743846548e-19
8.69309225274597e-20
2.60100644808984e-19
7.20138824802552e-20
1.64224094680566e-20
8.2980663034547e-21
1.17049700630995e-20
2.68884875886605e-19
2.1464194196688e-19
9.23138976878174e-20
3.85979563417922e-19
9.40533571960355e-20
2.38375045899081e-19
3.7128691298508e-20
2.17472958142545e-19
2.8522373625106e-19
5.07992887759855e-20
1.65567420344781e-19
5.0303958411826e-21
2.39463998979363e-20
3.49617846207279e-20
1.58258839762978e-19
2.8662597792539e-21
1.25221788027579e-19
7.4114702254686e-20
3.01960189263468e-19
4.33587884350639e-20
6.61292166764947e-20
1.54116865288911e-19
3.46044771784755e-20
8.99936503885634e-20
2.13267061379001e-20
1.06244223691058e-19
4.3731753998813e-19
1.67161954627513e-19
9.04864486107523e-20
1.49120980082171e-20
6.8113930958313e-20
7.36616623206225e-20
4.46021412568909e-20
3.39217087032594e-19
4.58227688816236e-20
7.05848976493758e-20
3.73855546179217e-20
7.61938443694956e-20
1.50831757517387e-20
2.15181426276133e-19
4.4020490314844e-20
5.46676576705487e-21
4.42942744126384e-20
4.72789597166225e-19
8.39930609046891e-20
2.02259924615586e-20
8.71937774126028e-20
1.4339826039893e-19
6.84072878865275e-20
2.97575641155109e-20
6.84371657909859e-20
1.89847687683262e-19
2.13739965712828e-19
1.66643005672836e-19
8.07875831680066e-20
5.33513610623783e-20
3.47522285216009e-19
9.25960758185826e-21
2.70761542614046e-20
4.31352337190485e-20
7.62080430198655e-20
7.32409725264855e-20
2.34324835719176e-19
1.15435742018956e-19
9.49777642690124e-20
2.17792955540787e-20
3.97483377296198e-19
3.75999128654701e-20
1.60006193818778e-19
8.29838620364082e-20
2.07581321474927e-19
8.69376348364185e-20
6.40473988826081e-20
1.51735250755642e-19
9.76707108611979e-20
2.92878753898872e-19
3.62712778160965e-21
9.76379403054161e-21
3.06009559827326e-19
1.13105891260283e-19
1.20875459679756e-19
3.51283775333916e-20
1.66590928312906e-19
1.63677227742198e-20
4.91005207145776e-19
2.83673264303071e-20
9.74520329861806e-20
1.6300633411568e-19
5.7783126304649e-20
2.32237130606898e-19
2.23871184900745e-19
8.71252948334904e-22
3.28562071409376e-20
1.38077084315494e-19
2.44251677489575e-19
1.43182428351829e-19
4.7528780064602e-19
4.16084876247948e-20
4.75386976450475e-20
1.68188787667971e-19
1.69393399135139e-19
4.15828858488717e-20
1.2391660652022e-19
2.7296931179332e-21
4.76416395054341e-20
3.67380303766882e-20
1.67004603847455e-20
2.0100559925574e-19
3.08630076765048e-19
2.27738999631358e-19
8.59171475759426e-20
1.4841667422889e-19
1.94775822912003e-19
3.90030487143641e-20
1.36218565063757e-21
2.18281080847261e-19
9.44210187239929e-20
1.93397344243227e-20
6.4425773541558e-19
3.23274354707026e-19
8.16990808684292e-21
2.20053323752294e-19
5.60031214087798e-21
5.13376708029316e-19
5.27224423555889e-20
7.68869483240146e-20
2.17256867429146e-22
6.87504603073363e-20
1.10663697888972e-19
1.36230145187651e-19
1.20005275763748e-21
5.86249225996664e-20
1.8887269904531e-19
4.05200706272987e-20
4.67058285557842e-19
2.62137814296027e-20
1.23895140811326e-19
7.56161886013701e-20
1.35447881605243e-19
3.47878343783751e-19
1.12022036829867e-19
3.01968475260938e-19
4.74776370952018e-19
7.59630665848542e-20
1.12700035837786e-19
3.20304048156586e-20
1.06555881753225e-19
7.34536310021489e-20
9.06591851988283e-20
2.00990371591337e-20
1.12367956682154e-19
1.51989015528896e-19
6.05077719084643e-20
2.02176435829912e-21
1.08159404160454e-19
2.31738571756653e-19
5.49169060707034e-20
1.09112594823412e-19
8.34536034301637e-20
1.70688071826141e-19
3.37715217728989e-20
5.63426888740133e-20
2.87825441057494e-19
2.12711441927431e-21
5.51051798450389e-19
3.17471079411665e-20
9.57565583250324e-20
1.64509851187511e-19
1.43335979127952e-19
1.69674168224852e-19
5.14057992973466e-20
1.21837681712015e-19
3.3389694850802e-19
6.11158727947808e-20
1.59104360144354e-19
2.88585632822786e-20
1.09188371107061e-19
4.18412740661387e-20
3.57695400840187e-19
3.08922566135678e-19
1.12865932734971e-19
2.39737766073271e-19
6.81448379047369e-20
6.28323386321671e-22
8.51259076305277e-21
3.91477471440092e-20
4.38616672960683e-20
8.38853358844974e-20
1.51890799272021e-20
3.73468988843022e-19
9.71964834935133e-20
9.91626128909718e-21
3.03752784947408e-19
1.85523407267607e-19
1.37796732627123e-19
5.93678392520557e-20
8.55677201650408e-20
1.48930078128777e-20
2.33031164556148e-19
3.99434664028885e-20
8.32099539319577e-20
2.08151825140186e-20
6.96085575361758e-20
2.29309616296502e-20
5.80351638490573e-20
1.6560689345204e-19
3.00318425958074e-19
1.28198783449189e-19
8.11985726625728e-20
1.79549033871296e-19
6.16007943732529e-20
8.82525502160254e-20
1.67967247744384e-19
9.68067338027577e-20
3.74548713587303e-20
3.24782941608677e-19
1.27102577353841e-19
1.61654467913529e-19
1.89881428192619e-19
1.34318957384617e-19
2.93260357665923e-19
8.20525759256307e-21
1.15113013532809e-20
1.79331388697351e-20
1.41655794311379e-19
2.99117498011378e-22
3.4222593835268e-19
3.60952581007243e-19
9.45245803135008e-20
6.68422101576077e-20
1.12263994537131e-19
3.39926687955599e-19
1.51310396861684e-19
1.46632257689695e-20
1.88512396598205e-20
2.06336894217684e-19
4.82738822743986e-20
4.40626415525189e-19
3.96691548754831e-21
1.20820290316742e-19
5.15902456477322e-20
5.20574146055715e-20
3.48243236700568e-19
1.40696109036539e-19
5.58479998539762e-20
9.99527387241955e-20
1.58514132183745e-19
2.14533846074044e-19
5.3887829193698e-20
9.23160126911844e-20
4.96165947584142e-20
3.04336382919298e-20
1.60639704581673e-19
5.2250327257875e-20
5.59332869671908e-20
2.07574090589858e-19
3.90525880701694e-20
1.02623420446245e-19
2.88952292161112e-19
8.85078817486069e-21
7.94530037669416e-19
1.6212778796368e-19
1.04793173474004e-19
2.98638690889857e-20
5.4479949425176e-20
2.56887184000983e-19
2.34186011540314e-19
1.16976780051291e-19
2.6911516666945e-19
7.82916882229473e-20
1.73952489064623e-20
4.23703606230573e-19
2.39944249006007e-20
2.03815337182953e-20
6.04549032382688e-20
2.11274565909083e-21
1.37369532357515e-20
2.09504620181424e-19
8.24437290819239e-21
3.15719547394927e-19
2.4570443946407e-20
1.47123761727348e-19
1.50994985034963e-19
2.93894561098193e-19
4.56446437637753e-20
1.89110685768663e-20
7.22030655613902e-20
2.43374561318601e-19
9.10944966042023e-20
1.7708047838228e-19
1.06539561532168e-19
1.94531305970856e-19
2.06322132372565e-19
9.72918594263371e-20
7.05352380561775e-20
1.78677608892537e-19
5.05216222325899e-19
4.01601108567829e-20
7.36229265501809e-20
7.48747066023696e-20
2.86788494484302e-20
1.29434930296732e-19
1.37706340746967e-20
1.26194928774618e-19
2.63379389991097e-20
3.73567606157782e-21
1.96813795312851e-19
1.08395097321846e-19
2.7112333218613e-19
8.06088165075812e-20
2.27402734101716e-19
6.40536769665629e-19
9.38189975615455e-22
2.48109237758357e-19
4.52626295263659e-20
8.74199446567761e-20
4.55476680500172e-19
1.05490356725675e-19
1.27215055709523e-19
9.34288936130914e-20
4.33188142670429e-20
9.10831795718327e-20
1.47830019052195e-19
1.75018273348605e-20
2.58527354525172e-20
2.54404573148365e-19
1.81680031959147e-20
2.12692434004388e-19
3.78009678987888e-20
4.41468813687799e-19
1.41341580887752e-19
5.57036960664185e-21
5.68409619207204e-20
2.73915872346293e-20
4.4533010692145e-20
2.87592898050193e-20
2.1256634920852e-20
3.35875440813449e-19
5.23384707916553e-20
1.59773555845752e-20
2.11931370288129e-20
2.24792580279227e-20
6.83521460090207e-21
1.38653843050828e-19
1.8753985561531e-19
1.55448142382927e-19
1.38522471733712e-19
3.7594218810756e-19
2.15006170899294e-19
4.77140447111329e-19
9.90428222929656e-20
5.5468344977767e-20
1.05174726232786e-19
2.76786758435914e-19
1.47580119323286e-19
4.24804680057064e-20
1.48581103292327e-19
1.59727626806271e-20
1.84994047955637e-19
1.07194821898577e-19
3.76339774311152e-19
2.64863289076e-19
1.08417503075467e-19
8.3380485544033e-20
1.67898385007391e-19
2.04188454507132e-19
2.06293376017468e-20
1.73186491496587e-20
7.42042966388364e-20
1.22157933529251e-19
6.55569156228619e-20
5.52969756794423e-19
1.36800599178938e-20
7.61970171204739e-20
1.75338251708001e-20
5.34895159472156e-20
2.38458078585369e-20
9.05338533286879e-19
4.81283647219115e-19
6.08719332573109e-19
1.93948068851084e-20
2.06622556852415e-19
8.68411741199745e-20
2.28501854027785e-20
1.87633272137042e-19
1.0387428477866e-19
1.11630342407366e-20
2.14114406749211e-19
4.78853018512292e-20
1.91915995001941e-19
8.78295475574451e-20
1.3928423856042e-19
2.63909352679807e-19
2.83465213466929e-21
2.01583845037127e-19
6.91617876304297e-21
2.93805337326099e-21
1.74270872884563e-19
7.62392080564885e-20
1.57408168028889e-19
5.90277266975408e-19
6.13452436626887e-20
3.90714642140419e-19
2.45301100614216e-19
4.15983696959962e-20
1.80955122373243e-21
2.27413376344089e-19
6.52904303305935e-20
2.5891485166883e-19
2.30342343670817e-19
7.91287938599482e-20
5.43929386065224e-20
4.5706964522801e-20
4.32950397902735e-21
1.48407965636943e-20
7.58646133671632e-20
5.88157622299389e-20
1.30125269618231e-19
5.70226207656953e-20
4.33245496040271e-20
1.35123278622707e-20
2.47424632730477e-19
4.92026161150128e-20
6.80524017651875e-20
9.14173976465361e-20
6.57646570443162e-22
2.20528268312867e-19
5.56899236802762e-19
2.82158389472474e-19
1.07570752869853e-19
6.6612395178211e-20
1.03203551157488e-19
1.17081761833042e-19
1.96107080822469e-19
1.53411647284237e-19
3.21657138714168e-20
1.34932404368861e-19
1.01971245832808e-19
2.16885309956744e-20
1.6979807574786e-19
1.79906739680442e-20
1.55385145459369e-19
7.32557306262118e-20
1.90873275865348e-20
3.98014419714639e-19
1.49535816005501e-19
5.18008112909713e-19
6.04556186459365e-20
9.58625416148664e-20
8.06819421234855e-20
1.53877038678393e-19
1.23094834882649e-19
2.57229170388235e-19
3.1333980177886e-19
9.98032072189493e-20
7.36651468102509e-20
2.29123958996028e-20
2.44075022748374e-20
4.84833001641359e-20
8.13969772784088e-21
3.71804974885827e-20
3.50029208372029e-20
2.35440771123264e-20
3.16992293354485e-19
6.01513401440271e-20
3.9866402923954e-20
9.38642673776791e-21
4.1961731479745e-19
1.91671165754616e-20
2.02581830028925e-19
6.27005607567004e-20
7.54980651161805e-20
2.45883033184151e-21
6.74859531135769e-20
4.93628860649612e-20
1.70023383942177e-19
2.31573256881738e-19
2.10636887842684e-19
9.7458417829105e-20
2.16098437369788e-19
7.66289838588971e-20
1.71292156394346e-19
3.53612741928236e-20
1.42776797964667e-19
6.14310104119389e-19
1.18877629158319e-19
1.16188301056993e-19
1.39204788174956e-19
4.44175396316754e-20
1.58329635141695e-20
1.88691674791137e-19
7.74870920536821e-21
3.52826011895768e-20
2.34317294543425e-20
2.25271786553203e-19
1.59500104394461e-19
1.28647725064476e-19
1.49606876796903e-19
9.18712796334095e-20
3.42364020462941e-20
2.95341216792067e-20
9.21528227832897e-20
1.48112021192901e-20
1.96503086989429e-19
2.81635197093162e-19
5.47714929955166e-20
4.94070294332544e-21
8.40020092748245e-20
2.86270128690761e-20
3.83808699978885e-21
6.87464185851602e-20
8.14970643613346e-21
1.30040607301954e-19
2.26322218097774e-20
6.16279535052208e-22
1.81437967797515e-19
3.09894861660425e-19
4.96806377615364e-19
2.53048997529525e-19
3.13656593349221e-20
4.4934597819025e-20
4.21251687959214e-19
8.80508188239888e-20
8.53676740706968e-21
8.70075565355555e-20
6.80627558923234e-20
5.83808997289004e-21
2.3150977588744e-19
4.46089546691704e-19
4.57409813280158e-20
7.40248654779776e-20
2.69567801810166e-20
3.51813640943904e-19
1.4447221048031e-19
1.85967480395461e-20
2.26584185227377e-19
5.17836927755459e-19
7.87440493321222e-20
1.28195374636372e-19
1.17277285056963e-19
7.95217553087318e-20
6.83323809396207e-20
9.81538278745507e-20
3.4046960352195e-19
1.01640617087917e-20
5.84575132107186e-20
6.75703807851183e-20
1.5801462645747e-19
1.04413298479108e-20
4.88815330105242e-20
1.07747056597403e-19
1.0009698962015e-20
6.98467773264534e-21
9.06758895261196e-20
5.8744322871343e-19
4.41278552870383e-19
1.48625382071184e-19
5.96852148930787e-21
2.50645552004955e-19
5.87888733361929e-20
4.76737209553998e-20
5.09821691220777e-20
1.90345911252124e-20
9.9148273961226e-20
4.26773003315696e-20
1.33982862284186e-19
1.19591703481876e-19
3.77548494792051e-20
1.06520416494783e-20
5.7171830741415e-20
2.58092051184791e-19
1.91779337935256e-19
9.55118977132187e-20
8.34089846284664e-20
6.11590958753438e-20
1.33800841797748e-19
9.20358399736261e-20
2.27343828826377e-19
5.92284931325155e-20
5.24166679779411e-19
6.13257381140599e-20
9.66077710771044e-22
1.26416229014491e-19
3.6739707793995e-19
3.69411522419695e-20
2.01480321013119e-20
1.32459431481886e-19
5.98016957196617e-20
2.0245464363968e-19
1.70704698507829e-19
1.28093832885494e-19
7.89972059179797e-20
3.50519973902051e-20
2.06209629812208e-19
6.24536678501554e-21
2.09301937267428e-19
4.36372810248299e-20
2.80145143880043e-20
4.43104471997632e-19
5.29257197876883e-21
1.7081776834448e-19
2.59064599031534e-19
6.09855661682032e-20
3.08540550536584e-19
3.81568644987712e-20
7.77107233052259e-20
5.54258038668111e-20
9.52609401817037e-20
2.71144632150356e-19
8.19493216587378e-20
2.87542250631231e-19
1.02888465394744e-19
4.09172239537223e-20
1.42426305064417e-19
2.7182898025647e-19
1.35763504708333e-19
1.58116471194512e-19
9.43300207957447e-20
1.74073709998746e-19
7.50378723184404e-20
4.18903010357953e-20
2.33576844094479e-20
7.23129838954651e-20
2.51235094641594e-19
2.44789446061687e-20
1.9950132250046e-19
5.82901343575219e-21
4.66812307598667e-20
1.47775159405107e-19
8.5147076987861e-21
6.7104298123234e-20
5.97807640112771e-20
5.96901997402535e-20
2.8813001440891e-19
1.16933450084006e-19
3.1985347674518e-19
6.59141278515693e-20
9.20501389179815e-20
1.85611248280618e-19
3.0309026839821e-20
2.36727498552925e-19
3.89318727759553e-19
9.67756136809443e-20
2.00408924301953e-19
1.27512725268107e-19
4.90195964621977e-20
1.30667709619502e-19
3.9190965068788e-21
1.6799069055495e-19
3.92794028843207e-20
6.01791296097086e-20
2.89211593345937e-20
4.52345894293464e-19
1.39175821515039e-20
4.04481704655959e-19
2.04021541223841e-19