/*--------------------------------*- C++ -*----------------------------------*\
| =========                 |                                                 |
| \\      /  F ield         | OpenFOAM: The Open Source CFD Toolbox           |
|  \\    /   O peration     | Version:  dev                                   |
|   \\  /    A nd           | Web:      www.OpenFOAM.com                      |
|    \\/     M anipulation  |                                                 |
\*---------------------------------------------------------------------------*/
FoamFile
{
    version     2.0;
    format      ascii;
    class       dictionary;
    object      blockMeshDict;
}
// * * * * * * * * * * * * * * * * * * * * * * * * * * * * * * * * * * * * * //

convertToMeters 1e-3;

vertices
(
	(	0	-102.5	0	)	
	(	100	-102.5	0	)	
	(	100	-2.5	0	)	
	(	0	-2.5	0	)	
	(	0	-102.5	1	)	
	(	100	-102.5	1	)	
	(	100	-2.5	1	)	
	(	0	-2.5	1	)

    ( 120 -102.5 0)
    (120 -2.5 0)
    ( 120 -102.5 1)
    (120 -2.5 1)

    (-60 -102.5 0)
    (-60 -2.5 0)
    (-60 -102.5 1)
    (-60 -2.5 1)

    (-60 2.5 0)
    (0 2.5 0)
    (-60 2.5 1)
    (0 2.5 1)

    (100 2.5 0)
    (120 2.5 0)
    (100 2.5 1)
    (120 2.5 1)

    (-60 102.5 0)
    (0 102.5 0)
    (-60 102.5 1)
    (0 102.5 1)

    (100 102.5 0)
    (100 102.5 1)

    (120 102.5 0)
    (120 102.5 1)
    
);

blocks
(
    hex (0 1 2 3 4 5 6 7) (200 200 2) simpleGrading (1 1 1)
    hex (1 8 9 2 5 10 11 6) (40 200 2) simpleGrading (1 1 1)
    hex (12 0 3 13 14 4 7 15) (120 200 2) simpleGrading (1 1 1)
    hex (13 3 17 16 15 7 19 18) (120 10 2) simpleGrading (1 1 1)
    hex (2 9 21 20 6 11 23 22) (40 10 2) simpleGrading (1 1 1)
    hex (16 17 25 24 18 19 27 26) (120 200 2) simpleGrading (1 1 1)
    hex (17 20 28 25 19 22 29 27) (200 200 2) simpleGrading (1 1 1)
    hex (20 21 30 28 22 23 31 29) (40 200 2) simpleGrading (1 1 1)
);

edges
(
);

patches
(
    wall 
	plate
    (
        (3 17 19 7)
        (3 2 6 7)
        (17 20 22 19)
        (2 20 22 6)
    )

    patch 
	inlet
    (
        (12 13 15 14)
        (13 16 18 15)
        (16 24 26 18)
        (12 0 4 14)
        (0 1 5 4)
        (1 8 10 5)
        (8 9 11 10)
        (9 21 23 11)
        (21 30 31 23)
        (24 25 27 26)
        (25 28 29 27)
        (28 30 31 29)
    )
    

/*    empty*/
/*	Front_and_Back*/
/*    (*/
/*        (0 1 2 3)*/
/*        (4 5 6 7)*/
/*    )*/
  
);

mergePatchPairs
(
);

// ************************************************************************* //
