/*--------------------------------*- C++ -*----------------------------------*\
| =========                 |                                                 |
| \\      /  F ield         | OpenFOAM: The Open Source CFD Toolbox           |
|  \\    /   O peration     | Version:  1.7.1                                 |
|   \\  /    A nd           | Web:      www.OpenFOAM.com                      |
|    \\/     M anipulation  |                                                 |
\*---------------------------------------------------------------------------*/
FoamFile
{
    version     2.0;
    format      ascii;
    class       dictionary;
    location    "system";
    object      dsmcInitialiseDict;
}
// * * * * * * * * * * * * * * * * * * * * * * * * * * * * * * * * * * * * * //
configurations
(
    configuration
    {
        type    dsmcMeshFill;

		    numberDensities
		    {
            O2                1e23;
		    };

		    translationalTemperature     15000;
		    rotationalTemperature        15000; 
		    vibrationalTemperature       15000;
		    electronicTemperature        15000;

		    velocity        (0 0 0);
    }
);

// ************************************************************************* //
