/*--------------------------------*- C++ -*----------------------------------*\
| =========                 |                                                 |
| \\      /  F ield         | OpenFOAM: The Open Source CFD Toolbox           |
|  \\    /   O peration     | Version:  2.3.x                                 |
|   \\  /    A nd           | Web:      www.OpenFOAM.org                      |
|    \\/     M anipulation  |                                                 |
\*---------------------------------------------------------------------------*/
FoamFile
{
    version     2.0;
    format      ascii;
    class       polyBoundaryMesh;
    location    "constant/polyMesh";
    object      boundary;
}
// * * * * * * * * * * * * * * * * * * * * * * * * * * * * * * * * * * * * * //

6
(
    inlet
    {
        type            patch;
        nFaces          517;
        startFace       310142;
    }
    cylinder
    {
        type            wall;
        nFaces          597;
        startFace       310659;
    }
    axis
    {
        type            symmetry;
        nFaces          500;
        startFace       311256;
    }
    outlet
    {
        type            patch;
        nFaces          282;
        startFace       311756;
    }
    front
    {
        type            empty;
        nFaces          155545;
        startFace       312038;
    }
    back
    {
        type            empty;
        nFaces          155545;
        startFace       467583;
    }
)

// ************************************************************************* //
