/*--------------------------------*- C++ -*----------------------------------*\
| =========                 |                                                 |
| \\      /  F ield         | OpenFOAM: The Open Source CFD Toolbox           |
|  \\    /   O peration     | Version:  v1706                                 |
|   \\  /    A nd           | Web:      www.OpenFOAM.com                      |
|    \\/     M anipulation  |                                                 |
\*---------------------------------------------------------------------------*/
FoamFile
{
    version     2.0;
    format      ascii;
    class       scalarField;
    location    "0/lagrangian/dsmc";
    object      ERot;
}
// * * * * * * * * * * * * * * * * * * * * * * * * * * * * * * * * * * * * * //


127861
(
1.54352823805428e-21
2.22599674248665e-21
7.43927996690273e-21
8.43590663694623e-22
8.22597943199537e-22
3.19917761774421e-21
6.44848806723805e-21
5.72358082677075e-21
6.59878578894022e-22
1.17196390985357e-21
1.25624558340095e-20
3.63190135664852e-21
4.27963299570647e-21
4.71772246136666e-21
8.53117735592681e-21
4.34943445036597e-21
1.93055018406347e-21
6.39691307307496e-22
1.15112939270766e-20
7.36670275604348e-21
6.14079722349208e-22
1.16949173048485e-21
1.37038194078861e-21
3.84060147128906e-21
6.90513725394928e-22
6.89721037282153e-22
3.22078486139061e-21
1.26502904869276e-20
3.48647279799113e-21
4.83835753963318e-21
9.1917582201056e-21
1.34357800528121e-21
4.08381024047244e-21
3.79070790571968e-21
9.96491074807256e-22
1.64731073966928e-21
6.2284997975904e-22
1.33441846434637e-21
3.7491216139143e-22
9.788686531441e-21
1.72796827950754e-20
3.24609051897186e-22
8.74127147102366e-22
3.49305160014473e-21
3.19163472497185e-21
2.31918747521051e-21
3.61304960309846e-21
5.621627679816e-21
4.00792465998059e-21
3.32926537848141e-21
3.48082947267766e-22
3.38252045422222e-21
1.73455033543544e-22
1.71637392631378e-21
2.45104546071371e-21
2.57830513465021e-21
7.87215869434203e-21
1.17699225441197e-21
1.30404660062627e-21
3.00842160472587e-21
3.91017646479146e-21
7.68461583696774e-21
7.78529436283118e-21
5.79836514389897e-22
3.70158765486965e-22
6.98960642295106e-21
3.05877278578195e-21
4.45223761614185e-22
3.54194955502755e-21
8.72859352363924e-22
5.43941242505263e-22
1.13769082305795e-21
6.88829265606523e-24
4.15283514799378e-21
9.36725046130221e-21
8.5321262243147e-22
7.1491668940012e-22
2.71547047260448e-20
1.08588138992897e-21
4.97537098661176e-21
7.67899433470715e-23
1.53597363434182e-21
9.45612315519899e-22
2.32353161308082e-21
1.83853956465436e-21
3.93946902613168e-21
6.0234721877101e-22
5.65441138149954e-22
3.22689313927995e-21
1.04784777787581e-21
5.65756507528973e-21
1.89420983954301e-21
9.60039598981381e-21
6.01522187555545e-21
6.19417891627243e-21
2.35645418103098e-21
1.6491105328792e-21
6.41077260361663e-21
9.58892205741764e-21
3.72059798787303e-21
1.38571502630446e-21
5.25405158398626e-21
2.29272928957084e-21
3.09808371165826e-21
2.39584359780844e-21
1.47485398607766e-20
5.40720717063112e-21
4.03182804005107e-21
7.33353642262561e-21
6.52029820202605e-21
2.33905537593647e-22
8.05880897159911e-22
2.48684383741373e-21
8.97155997982521e-23
1.40147725726609e-21
1.04174040650881e-21
5.01870282842809e-21
5.83061563071117e-22
1.60048816597418e-21
1.32679343410646e-20
9.76466278332277e-22
1.91397689664368e-21
5.55551390743488e-21
2.49328005317917e-21
5.9599255901078e-21
2.48238885509466e-22
4.0661195135495e-21
2.35521496459697e-21
3.64005385411754e-21
2.15588649246967e-22
4.70763224703309e-21
8.17695553245796e-21
3.6294074277431e-21
4.71950509596453e-21
1.83406613408829e-21
2.07591982058076e-21
9.88716115033337e-22
1.0709353408024e-21
2.37827406401677e-21
2.04303034830428e-21
2.48100128871904e-21
1.91833195176612e-21
2.87020632555329e-22
9.26360954338862e-21
4.18159000515275e-21
2.64939352686225e-21
5.2116433231417e-21
1.10609450180492e-20
7.80646451820977e-22
9.63810270639796e-23
2.56134269032842e-21
1.11459978667638e-22
5.54838724305174e-21
2.15753253409785e-20
1.64610982561405e-21
9.02775384051392e-22
6.09498996360427e-21
5.79677690461631e-21
3.89227215399982e-21
3.7816335050769e-21
8.92903588814906e-21
4.85617440134504e-21
6.47138940643838e-21
6.35232247024313e-21
5.68834813554045e-21
6.75745150308787e-22
2.80126075664631e-22
3.87072243960837e-21
5.41484114934605e-21
1.74279907546577e-20
4.48141102223761e-22
2.70663405309619e-20
2.98071763274588e-21
8.42626405701914e-22
3.84981229158761e-21
1.62651440219563e-21
2.21636962804568e-21
6.18198863494488e-22
1.16804359539189e-20
1.5203367898082e-22
9.08052748996803e-22
3.46826628616159e-21
9.6272675272257e-21
6.29528713600696e-23
7.85152212887781e-22
5.18840056498479e-21
2.52452674813648e-21
1.1811048289754e-21
9.6070935036271e-22
8.86595750798497e-21
2.35373214469338e-21
1.68862811658359e-21
3.396410745483e-21
2.4045762879402e-21
4.76474125635523e-21
1.14480223688301e-21
6.04808429048697e-21
5.70475506691727e-22
5.10794907063118e-21
1.28172962144803e-21
6.675979688951e-21
4.45528641119756e-21
2.08821902855085e-21
3.31153285187967e-21
5.17462018929725e-21
3.97941805800529e-22
4.667661873596e-21
6.20047892021916e-21
2.58407404540861e-21
7.40141201150052e-22
5.69070453720026e-21
4.64786511526493e-23
5.59689240286827e-22
4.33903766837427e-23
8.63893648543349e-21
8.71863885739464e-21
3.67961675884204e-21
1.52407095828162e-21
4.98120142268522e-21
6.36882002857871e-22
6.58972616427182e-21
7.20748767016116e-21
4.79932617356044e-21
8.73630561259635e-22
5.0653159257421e-22
6.02200214616066e-21
6.61270555037491e-21
6.20720079470986e-21
1.39772134723499e-20
2.02948552053072e-21
1.31161335870614e-20
6.89380472404177e-21
4.73711159168481e-21
3.89912479451358e-22
6.49836312195744e-22
6.73493925381857e-21
9.64003022618051e-21
7.26857964395668e-22
4.39150795710007e-21
7.64412599951787e-21
3.85774021453914e-22
1.91620288720511e-21
8.16539621239725e-21
1.57190113395395e-21
3.88154688895461e-22
2.65948054807979e-22
4.11618035749921e-21
3.21035168613413e-21
9.61269543453887e-22
7.98810111217736e-23
5.98305925118745e-21
2.15005518563362e-21
3.87353176579821e-21
1.71914706849237e-20
2.37890714401054e-22
2.61128597378094e-21
2.46336221434546e-21
2.39326742384772e-20
6.28610071551123e-23
7.97352615015518e-23
6.34783041063855e-21
1.2608064364231e-20
6.99488273153984e-22
3.77720997202408e-21
3.7091275889474e-22
2.59839601800689e-22
1.01483416603955e-21
2.92064491015947e-21
2.86762185488499e-22
1.83869989406233e-21
1.53749078797635e-21
4.94791418700453e-21
3.45095107842777e-21
2.29075313963177e-21
2.00168039788777e-21
1.59072744760541e-21
6.97387237601601e-21
5.21686008872192e-21
2.1522074704605e-21
4.00134233064207e-21
5.24185830536299e-21
4.89249805931877e-22
4.63678310112182e-21
1.04747793860163e-21
9.42443161988771e-22
6.37153257731151e-21
5.53102937937684e-21
1.25687922118356e-20
1.98100012743429e-21
6.68188368317975e-21
2.74580113097981e-21
1.5434914183249e-21
1.85626628229113e-21
4.17076850861037e-23
4.523927892716e-21
2.73060408185046e-21
2.42853833077188e-21
3.39710296861269e-21
2.82346768450708e-21
1.77898773934387e-21
1.59133874099487e-22
5.12036344307719e-21
1.23418753691535e-21
1.00901301733766e-20
1.23983217915167e-20
1.782908838306e-22
1.98331126879652e-20
7.64086895641906e-22
1.33183511148271e-22
1.98663702923394e-21
8.87558436531798e-21
5.3353455909751e-22
6.69130061921345e-22
5.76196643330635e-21
4.06332298435104e-21
2.20017793481071e-21
1.12114268730321e-20
5.50080315806442e-21
4.09973288947751e-21
2.05333951233159e-21
1.4853479884665e-21
7.88373647559143e-22
4.95919934757782e-21
2.33457386023523e-21
6.38998475189335e-22
1.01069005049638e-21
1.40877031637686e-20
4.09779453948239e-21
3.41886387980375e-21
4.35413892413819e-21
7.71559275396304e-21
4.02064091650316e-21
1.93463582817737e-22
6.64264415720898e-21
3.73189993721218e-21
1.40668477518286e-21
1.18244429528286e-21
1.46589803425132e-21
6.41364359652343e-21
1.86996843540048e-21
1.47305462378114e-22
1.42651800208158e-20
1.17413547946831e-21
1.58766281134877e-21
6.87267214227095e-21
6.09867545900466e-22
1.85739129250584e-21
8.91417349717632e-22
1.28797555737952e-21
5.87947471164615e-22
1.60872766289751e-22
3.35007690604153e-21
2.00294208236201e-21
3.14985433460904e-22
2.51271112115985e-21
1.05032663580139e-20
4.22868483475657e-22
1.83163032358965e-21
8.40111283940009e-21
8.07821001126147e-21
4.70816819546027e-21
6.56176281529248e-21
1.13802430442486e-20
4.45370902504778e-21
1.05133894255664e-21
6.9195385873991e-21
5.24846290442083e-21
7.12740967352791e-22
1.02205965645095e-22
1.15683686313853e-21
2.47564281830865e-21
3.17285914342943e-21
7.03777042079375e-21
2.50915926044529e-21
7.05252921531756e-22
6.00601435084558e-21
2.26323992299652e-21
5.09777968879339e-21
2.12370015510186e-22
2.23776173195945e-22
8.3399103445753e-21
3.5291022989115e-21
2.68318803675392e-21
9.60302126242239e-22
1.67604696510017e-21
9.79282403810825e-21
8.81936296717099e-22
2.12177028436765e-21
8.03875031948975e-22
5.97812674998748e-22
3.03339496894062e-22
1.70544017483551e-21
1.65943011004945e-21
3.5599331289976e-21
8.29529477143756e-22
2.23829137458943e-21
5.21251542185552e-21
1.02269955470421e-21
1.03410243464786e-20
9.26901986023808e-21
2.48619096761206e-21
8.19542408219971e-21
3.85305589228566e-21
5.17988251816249e-21
1.89233223535096e-21
5.36408360334596e-21
1.01666845362742e-21
1.08671106496807e-20
1.1295943627177e-20
7.93294194193833e-21
1.29640483994991e-21
8.68753401665251e-22
9.53503284665659e-21
6.43229066972272e-21
2.83769885255579e-21
1.14519052067136e-21
6.60086104757448e-22
1.04922939649164e-20
1.41771675434143e-21
8.25511862987704e-21
1.79162772223462e-21
4.20184370828996e-22
1.03193731480578e-21
7.4046360148645e-21
9.25524713960238e-24
1.54581435879688e-21
3.57839530353118e-21
1.12509861480088e-21
7.99438390749219e-22
1.47482467690218e-20
1.74779643656896e-21
2.00816807146782e-21
5.94178120843222e-21
2.27970373900902e-22
1.90731870006755e-21
1.96741625396809e-21
2.64625312747976e-22
3.4465524111841e-21
1.58808460727381e-20
4.3852337343217e-21
6.05727602806518e-21
1.06632825954072e-20
1.90888420893643e-20
3.40502347276078e-21
6.61422251608803e-21
9.11207281851163e-21
1.10883552621842e-21
3.84814858012204e-21
9.75040347768289e-22
1.43932063431479e-21
1.75644546305124e-21
7.66794881894686e-21
4.22686132317007e-21
2.046897748237e-21
1.11422861558181e-22
2.12466606235054e-21
4.02779593243158e-21
8.14703735715641e-21
1.07215737316186e-20
1.53636420836071e-21
1.32806928758066e-20
2.91946502807332e-21
2.80531082025133e-21
3.2290345677811e-21
8.87804195038639e-22
2.37413343595139e-21
1.67226235540387e-21
4.22181209600278e-21
6.22412793430068e-21
9.44257787806397e-21
3.09984453682124e-21
2.06944268507623e-21
6.95000821591101e-22
1.99910112775043e-21
7.02406409305799e-21
1.32222901035745e-20
1.22468274082592e-21
3.96180265873973e-22
1.6215109455771e-20
3.51063671144779e-21
5.02410334220112e-21
8.75624206961878e-21
2.54794766206892e-21
1.23577441489786e-21
2.44408467643495e-21
1.1725804722791e-20
8.0763283342381e-22
1.39575219309815e-20
3.30119368682899e-21
5.7245744552883e-21
9.32057390333571e-21
5.93683495118593e-22
3.84898443442778e-21
1.02921693820042e-21
1.85247383271747e-21
1.51115313310027e-21
2.87494869009981e-21
9.79642874667761e-21
2.92653916186466e-21
3.9407076624404e-21
7.5656594876681e-21
3.79506712034146e-21
1.15529082776415e-21
7.94188251951636e-21
1.5435424010189e-21
6.90084865936431e-21
8.42776290052617e-21
9.75220756873334e-22
8.1818887751902e-22
1.68388960583895e-22
2.10850788768958e-21
5.55557669437842e-21
2.57679425721039e-21
2.10597407039956e-21
1.10883509016682e-21
3.2270096811647e-21
6.68889754543841e-22
1.49560521021842e-20
2.01938519498401e-20
4.12577604157377e-21
3.01351943311875e-21
7.79697681560614e-21
1.03352421744467e-21
5.50120154352848e-21
1.04698881194797e-20
6.50440544293609e-21
3.77037411324898e-21
2.4626783504038e-21
5.83730163180857e-21
1.06219007308152e-21
5.2494565265608e-22
1.29383345099117e-22
5.53158508957539e-21
2.49728533606118e-23
3.14413649108026e-21
5.83938241520077e-21
6.58239724889088e-22
1.44431786632049e-20
6.26739126015847e-22
9.80470855458847e-22
3.0157833115805e-21
7.78158696767408e-22
3.43227652709156e-21
5.79308950576082e-23
5.90864633562922e-21
1.5643535169964e-20
1.22546130959956e-21
4.76827495803721e-22
3.08830599944999e-21
1.08184519274119e-21
2.29975036787081e-21
9.53442969222934e-21
8.42962100976905e-21
2.6004642955957e-21
5.25573573246328e-21
7.53164477328594e-21
2.06172869780308e-21
8.30160096338904e-21
1.71788038122287e-20
4.89938704330892e-21
4.3266331121116e-21
1.29806621613218e-22
1.40997699078788e-21
5.63716423589078e-21
1.00353829587762e-21
5.03863731680688e-20
2.06242387136484e-21
4.17233594451545e-22
7.25339992749343e-21
2.19546507190487e-20
1.48589274106923e-21
2.40840243359251e-21
6.01056952241774e-21
3.97291998954047e-21
7.91939438921595e-21
1.45247111593625e-21
9.25624250375436e-22
5.76690437447299e-22
1.8731413648321e-21
3.44954425776086e-22
3.03852791762943e-21
3.58501875259061e-21
2.88239833319249e-21
5.57927425859873e-22
1.13678734414752e-21
3.27079649215841e-21
2.25805647417552e-21
4.61138731357602e-21
6.33833983220774e-21
5.69508435604907e-21
1.7509580568545e-21
9.79809527541387e-21
2.56694525547651e-21
4.93959355678142e-21
1.35327100736103e-21
9.26234677496467e-22
2.57487662045786e-21
3.03239663984979e-22
7.16032671639154e-21
1.29076799049147e-20
2.09534779644135e-21
5.31756005450325e-21
5.79338566110184e-21
7.01781707636119e-21
1.79158737393044e-21
3.54677254464149e-22
1.50914954831828e-21
1.9808662956462e-22
3.51566696424403e-21
6.3651813518678e-21
1.22215758250971e-21
1.12417643216965e-20
6.31069748116803e-21
1.31607827977169e-21
7.35129854599579e-21
6.19000339028824e-21
6.35949965111798e-21
1.43786071067029e-22
1.38376884946302e-20
1.68390699248758e-21
3.37934276493846e-21
1.12155827501336e-21
2.45130045547448e-21
5.91690320063588e-21
9.68723622014995e-22
4.97910939204913e-21
1.15831514675934e-20
6.04289119787737e-21
2.5109140914377e-21
7.03241845290157e-22
5.76667605765222e-21
1.28380342026313e-20
1.68336562136691e-21
1.05994643920177e-20
1.03066720494101e-20
3.66858930779961e-21
1.44996095195192e-21
1.86385506775996e-21
9.92562262142268e-22
9.8066311854571e-23
4.44181470692597e-21
1.46144009312212e-21
2.35046653702543e-22
4.69086130162667e-21
6.35674650757709e-22
4.27455744675268e-21
8.54739182840326e-22
9.85334623091582e-22
4.14925081105606e-21
1.36915291280629e-21
1.31749606852115e-21
9.92602222192567e-21
1.79361903607008e-20
4.62026563575361e-21
2.45993179523569e-21
3.76062590881483e-21
2.64291889546889e-21
3.34784529995957e-21
3.83175909312174e-21
1.66584025056852e-21
4.41606210790581e-22
3.51716195036018e-21
1.83122319038528e-22
4.12816993783614e-21
8.26960782820933e-21
7.82225999810827e-22
2.66030005237628e-21
2.20143149593796e-21
1.1281211114632e-20
2.88105180081445e-22
5.09330818774022e-21
3.7354836792788e-21
3.09054584312415e-21
3.08777565784398e-21
3.78676430131704e-21
2.08135894928814e-22
3.40655477736878e-21
6.67272606423706e-22
6.79880957872362e-22
1.0587014626519e-21
4.84011441172766e-21
6.89068053113038e-21
7.85724995864997e-21
2.57154322622482e-21
2.58990678747974e-21
2.6031928749624e-21
4.47318021495787e-21
3.35065160270936e-21
1.11412199969324e-21
1.0699551469997e-20
6.48537881297138e-22
1.06489513510741e-21
3.91551063447707e-21
4.48556468294421e-21
2.1494643321503e-22
8.89433972366289e-21
1.27422514867886e-22
6.08229712483755e-21
1.10964453221749e-20
4.20808940849773e-22
1.38861977462734e-20
5.44764068793382e-21
1.71904145503258e-20
1.67260514337858e-21
5.6590577153483e-21
5.16892099455739e-21
4.31658227958339e-22
1.17544148833392e-21
5.71304122646516e-21
5.36454171369878e-21
3.41188811464979e-21
9.3132498136454e-21
8.48171873560616e-21
6.12362167369219e-21
5.01221506465704e-21
5.53588845436982e-21
1.45713157986437e-21
7.11342338484761e-21
2.12484881355016e-21
3.81284409691499e-22
2.58666936535526e-21
1.5074573264865e-21
8.3541934806246e-22
1.3116728249361e-21
3.75880321151373e-21
1.16704395685255e-20
2.42516985149332e-21
1.13642447218835e-21
2.84399222968035e-21
1.72424853955143e-21
1.07430138436433e-20
3.23217796505195e-21
1.03670581580278e-20
6.21614903674592e-21
1.03061926220312e-21
5.97505764027699e-21
1.49172316394049e-20
1.55205771609847e-21
4.44736516990251e-22
8.83320354565018e-22
2.15404786589676e-21
7.98821975212208e-21
1.01620937365498e-20
2.27100262137892e-23
1.64619943231303e-21
2.74965010675761e-21
3.62076910551908e-21
1.33393481657953e-21
8.5646574977447e-21
6.74751699019617e-22
1.83527831843885e-20
5.44634327401846e-21
5.65155025419991e-22
2.75758781354029e-21
2.40963676105757e-21
4.56658385242964e-21
8.6787694736624e-22
6.64086594902399e-21
4.05837180245911e-21
1.74863656619238e-22
3.73350077353977e-23
5.13360135893496e-21
1.03749071431448e-21
2.27828305599721e-21
4.16487428349298e-21
7.09519768774441e-22
4.30322643570023e-21
6.70644982407821e-21
3.11712672788227e-21
1.04737044959869e-20
9.52408658836882e-22
1.56806586507003e-21
2.71160712585132e-22
8.73962687310916e-23
2.4128321263448e-21
8.1423914443837e-22
1.14183410804583e-20
2.24653959058523e-20
4.73015242913157e-21
5.31530746710605e-21
1.54176770914795e-21
6.59953008926618e-22
1.1696788144686e-22
5.64216429172261e-21
6.66764207191979e-22
1.10669030013438e-20
9.86161971607611e-22
8.53466014536602e-21
3.32932917823842e-21
4.19259461406884e-21
7.65280191953928e-21
1.8922817045879e-21
4.65686202193816e-21
2.51466874460305e-21
6.65252676377682e-23
3.87863010151408e-21
4.90543655329976e-21
4.83286338149297e-21
1.79277166391961e-21
4.89203248418207e-21
4.79167634289598e-21
3.07853906783036e-21
7.75245866245326e-21
1.99839969738472e-21
4.21217134436576e-21
2.76764816512303e-21
4.61096933996358e-21
5.17517874357662e-22
3.93082518495435e-21
1.0867006406508e-20
1.60448014290752e-21
2.98141818815362e-20
2.56275918948424e-22
3.4815467343401e-21
3.40460132716105e-21
2.91937078708549e-21
4.36402303699069e-21
9.30147317670315e-23
7.63798051642876e-22
9.98858804673155e-22
3.57921266457999e-22
1.58173401347778e-21
9.20920340302629e-21
2.85006341136126e-21
3.28926591462068e-21
2.44737317919657e-21
6.64963671904441e-21
5.98981180516507e-22
1.39918583898445e-21
8.43805574541562e-22
1.02458178605164e-20
2.93240970542846e-21
3.19284094745583e-21
5.78276427005498e-21
4.72778865457146e-21
2.06017787131372e-21
2.76482224103766e-21
1.05488516488654e-21
8.32354938028879e-23
3.75057472982903e-21
4.66331563092424e-21
6.01068009870353e-21
3.74611461046321e-21
2.48742017905067e-20
1.95566478692154e-20
5.29734709346595e-21
7.33099559540018e-23
4.73428027602427e-21
4.74694691927206e-21
4.12819332735081e-21
1.60459830284758e-20
2.92674470879639e-22
1.05646998202399e-21
8.03906068343486e-21
1.1333988511511e-21
2.14746393494433e-21
1.41848777237155e-21
2.2690845947851e-22
2.87741552326601e-21
6.45627600559261e-21
2.02490945274758e-21
5.83087362449163e-21
4.51543120772769e-21
9.47802787916317e-23
6.44902908484773e-22
5.09846283564753e-21
1.93964384902594e-21
3.64317191475237e-21
3.68200485636065e-23
1.26258310098468e-21
4.27946754338593e-21
2.12818064667728e-22
6.2928968032734e-21
5.49057929535604e-21
5.58744770993056e-21
4.11077848612066e-21
2.16351208278073e-21
1.63627786615979e-21
6.78847475641168e-21
4.10598278224178e-21
5.76502741589332e-21
2.44343126505416e-22
4.50444727842608e-21
3.79382113196279e-21
9.71339330268795e-21
6.61859586393341e-21
6.71889362770872e-22
5.9442441113928e-22
3.61985885156183e-22
3.8754292486431e-21
1.22294458927158e-20
3.19266821145646e-21
1.82596842722845e-22
1.35062730316226e-21
1.51800795225911e-21
4.83868236915927e-22
3.02179033531326e-21
4.66046888517451e-21
3.01448041796051e-21
3.2252871640825e-21
1.84769677251819e-22
7.91566546788933e-21
3.31708222421446e-21
1.25249220184794e-23
1.80343254703757e-21
1.29743153131696e-20
1.4103819045301e-22
5.74900361866611e-21
8.15525966308097e-21
2.30158371704123e-21
8.88398637576559e-21
1.95033462815735e-21
5.77340003835783e-21
6.27137331240969e-22
1.50576832044874e-20
8.62938333202301e-21
2.41216553079612e-20
4.60616232719532e-22
1.13344758724052e-21
3.107596131711e-21
2.11012932066294e-23
6.32692674088469e-22
3.5635851121705e-21
1.34584968515973e-21
2.19050725499058e-21
2.32730408398351e-21
3.4305507618065e-21
1.71535283219096e-21
1.41838922661317e-21
6.52549123318921e-21
3.80463633767521e-22
1.65718135802359e-21
6.98106930394089e-21
1.28598115479084e-21
2.6822331676056e-21
3.35801824173705e-22
4.89267767244151e-23
7.67444185286557e-21
5.42226463095406e-21
1.07693126986691e-20
1.05143911437126e-21
1.8420051441185e-21
5.37430749739008e-21
5.05261280960363e-22
2.44062659788493e-22
1.01071079860321e-20
3.49631269888813e-21
3.9836909785618e-22
4.15158559395379e-22
2.56901877182607e-21
4.78426845408895e-21
6.14163338344948e-21
4.46938750041764e-21
3.41635630352058e-21
1.13954703767783e-20
2.60742153684379e-21
1.11917256814654e-21
6.1488848510713e-22
2.18278386242804e-21
1.00945147299022e-20
5.38486351986217e-22
8.42375051997157e-22
6.80217784255559e-21
9.08572605880485e-21
6.94593847707031e-22
2.00590691970693e-22
1.65158563244381e-21
1.70060173295062e-20
1.74568205792573e-20
5.41046793020185e-21
2.90079849777286e-21
3.02303849079891e-22
3.32443057782893e-21
2.13675975238494e-21
1.19760971397507e-20
5.96996255564743e-21
7.98483364235313e-22
9.60209106428614e-21
5.68700725379973e-21
3.63123914827841e-21
4.96403060343377e-22
7.72784161012862e-21
5.40358383173631e-21
6.59882640247545e-22
1.5850651487381e-21
1.49192893640972e-22
1.44046699936924e-20
5.66377320379675e-23
4.73930489171941e-21
7.36633861045925e-22
7.77874413548e-21
5.34215017081216e-22
2.43391306470939e-22
5.96912573062278e-22
8.20743199120828e-21
1.4496572548365e-21
1.76193946775354e-21
3.60234922496026e-21
5.48835829406037e-21
2.07433423123349e-21
8.52481381239109e-21
3.24916525036481e-21
2.21114039566197e-21
5.4025831764015e-22
1.46187946169754e-21
1.33916314621319e-21
4.52610558287147e-21
5.47655080312844e-21
5.01590358274416e-21
1.10034279061994e-21
1.27837878235273e-20
2.75448270060933e-21
2.46649581849478e-20
5.05330059788712e-21
1.46415886293136e-21
3.77086256606666e-22
1.24423458773569e-20
4.53987955917317e-22
5.82859286247055e-22
4.00822421631266e-21
3.13280426492466e-21
2.48102031055702e-21
4.91221009897083e-22
2.27992006887975e-21
2.93927196968223e-21
3.63193067987338e-21
1.90611474322979e-21
4.86553245536843e-21
5.64875453866337e-22
1.79844023941466e-20
1.0454721356932e-20
1.52779467474607e-21
1.9877277999472e-20
8.50788153544531e-21
1.28575777662382e-20
4.62244162899949e-22
5.18045047636194e-21
1.49753894373946e-21
4.84607329426923e-21
2.36302904067258e-21
4.35071542838252e-22
3.77985841538438e-21
7.59212202571435e-21
2.81960850568434e-21
3.56510537298854e-21
3.87413630756867e-21
1.77010509591565e-20
3.99510213251123e-21
1.56655047776272e-22
3.11271639248313e-21
4.16769354650727e-21
1.00221401399486e-20
9.26406145136833e-21
9.56423354250288e-21
1.09054309860346e-20
3.14720433024094e-21
4.88416036149017e-22
2.34974416581337e-20
1.03026369386696e-21
2.81334999285334e-21
1.49703651120613e-21
5.0399325570562e-22
4.23962584246659e-21
5.10650904083972e-21
6.73863296946529e-21
4.8703094798441e-21
7.41182430631535e-22
5.29516108837506e-21
7.93279184607441e-21
1.86337015611451e-21
3.08844164983512e-21
9.91266788057261e-21
5.59034262317298e-21
1.12628771890257e-20
1.10837792859683e-21
2.45541229004866e-21
1.87848008549234e-20
1.2083691790309e-21
1.20473486283115e-20
1.64626878795711e-21
1.11331645487711e-20
4.04108426096549e-22
1.31857498531461e-20
1.70265047059197e-21
8.24679172308272e-21
6.71242203039675e-21
3.24157063339185e-22
6.09701303264364e-21
3.76362206229484e-21
1.44120493240479e-21
2.20174781206819e-21
2.20230284294212e-21
2.14531550934251e-21
8.75692118645527e-21
5.21412870799494e-21
1.6492273525886e-21
7.22617640550704e-21
9.36022451319681e-24
1.98133457074089e-21
4.58816699409664e-21
4.86096666478638e-21
1.79711178019022e-21
9.7206669939729e-21
3.03927191205945e-23
1.19294154884387e-21
7.0564422024174e-21
1.23456777952853e-21
6.93096723067851e-21
1.33454119680642e-22
5.51507672582469e-21
6.90861706795424e-21
5.80987436094032e-21
8.20620783581067e-21
3.5344512651977e-21
1.12121462204274e-20
8.12063410268022e-22
1.59721460902428e-21
5.77040188044969e-21
2.94280752295973e-21
2.20332535682887e-22
3.09214901977109e-21
3.06709428132164e-22
3.71039396948986e-21
3.03354610265521e-21
6.49935591223324e-21
8.64022598737537e-22
5.89979942117936e-21
7.90824470288094e-22
2.2062816651015e-22
2.92170787066529e-22
3.23828103628711e-22
5.13415961023219e-22
1.91664243411152e-21
7.28565485394044e-22
5.02044176180372e-22
2.450592386421e-21
1.07192151387439e-21
1.35950675371519e-20
3.66539171440729e-21
1.08866533069048e-20
1.44454283747676e-21
5.34526460045707e-21
8.55209554542412e-21
8.39840299172911e-22
3.1320637207182e-21
1.64123141130187e-21
3.47047490068376e-22
3.09915496724953e-21
6.40039126352448e-23
1.80920592075405e-21
4.33087168131015e-21
4.16383869050106e-22
2.51272005431869e-21
6.30644291923875e-22
9.78668001535102e-22
6.17452405783082e-21
3.4486969666407e-21
1.03966673063972e-21
3.33378772338786e-22
6.07410749264849e-21
2.64855287935534e-22
3.34695436643229e-21
1.26991676940403e-20
2.24098843267361e-21
4.04093721759592e-21
6.81951403084084e-21
9.83492942434348e-23
5.30996546235975e-21
3.93451097430874e-21
1.06941528544891e-21
7.40070380674231e-23
4.45854276110036e-21
6.43605178452797e-21
1.40717994983211e-20
2.63223161160542e-21
1.23322010958373e-20
6.8171059473855e-21
1.93158024986829e-21
2.99401422144516e-21
4.74974416038344e-21
6.03645030597893e-22
2.95513942776055e-21
2.98833369944747e-21
4.00277207292862e-21
3.19947656335824e-21
1.58814233838472e-21
1.94976020685914e-21
2.77892314868956e-21
9.63989114425629e-22
4.71939944328222e-22
3.25636907654589e-21
3.84828126543063e-21
7.27474995613848e-21
5.9178753431371e-21
4.47415178153376e-21
1.71214791916468e-20
1.4678981031912e-20
1.85475490406602e-20
2.73931708222259e-22
4.12708931292534e-21
9.80720310945193e-21
8.92689006431761e-23
2.71929774780093e-21
4.51684106647666e-21
7.85843539972874e-21
2.40448055184689e-21
1.39411568889154e-21
5.79519366098712e-22
3.45535961771278e-21
8.50693638379776e-21
9.64493585776082e-21
9.6032467070696e-21
1.91444677394983e-21
2.3059675985616e-21
3.96180515680448e-21
4.14964276240372e-21
2.33269801362102e-21
2.01868105605081e-23
3.30145708775121e-21
1.75942925856504e-21
6.94997997102843e-21
9.8232320409908e-21
1.63198951392657e-21
8.03948074433351e-21
4.33479580834208e-21
9.89895512368916e-22
6.83324764396097e-21
1.27390474542853e-21
2.05308141816372e-21
5.25008553945935e-22
3.88458613071577e-21
6.65899419853151e-22
8.65564569741246e-21
1.3154114124149e-20
7.40480989781971e-22
3.1754039603392e-21
6.81758198802508e-21
4.87530432154501e-22
7.57498107183041e-21
4.73330689322959e-21
5.55763969324498e-21
2.0507317139427e-22
1.40610773125546e-21
1.09570535206141e-21
1.14725473605744e-21
1.32999584734127e-20
1.47378716380012e-20
6.05035820458424e-21
1.5524102470423e-21
1.06578244220681e-21
1.23998067807585e-21
5.59365259223913e-21
1.63532411647499e-21
5.53609473851877e-21
8.01192635863761e-21
9.96221169763994e-22
4.61613356821186e-21
3.50893682899763e-22
7.95968649009651e-22
1.01496512866532e-20
9.68285545078143e-21
4.35693257382616e-21
3.4031662670912e-21
1.89652111906704e-20
1.66267872565272e-21
9.87931487797201e-22
2.18657465855721e-21
1.34311562825562e-21
2.2673834634955e-22
3.30053151043567e-21
3.17042136774178e-21
3.29338808746642e-21
4.99584085396035e-23
7.4773256825263e-22
3.25181320404715e-21
4.95919605192091e-21
8.74583678407234e-21
2.33101569267873e-22
1.03058726745417e-22
1.13290956479119e-20
8.95734132164702e-21
3.29714141311077e-22
4.19107812267751e-22
2.3241828951969e-21
1.76205302025679e-21
2.69096996532905e-22
2.02463770782539e-21
6.4557065408083e-21
2.72525789084135e-21
8.34969852084353e-21
3.24350781334837e-22
1.69669606572464e-21
4.48598448203622e-21
3.3462241724869e-22
2.98859588113657e-21
2.14015279229385e-20
4.38261970865922e-21
3.24023376589249e-21
9.46181333578168e-22
3.11902761875332e-21
2.58269923502682e-21
6.39202068463931e-21
6.08665431869214e-21
2.20317992346496e-21
8.04541836567562e-21
1.25743653245626e-21
3.37212019682389e-21
5.9875838092352e-22
6.69513892766782e-22
5.45655872803326e-21
1.18049071023074e-20
1.21674267255825e-21
1.14626504165993e-20
2.17628094665922e-21
3.57670395291865e-21
4.04338234018306e-21
6.80287990234396e-22
8.69891893212947e-21
2.39530563352222e-22
1.80028846244084e-21
3.68873509888583e-21
5.06410014713829e-21
1.11009535997916e-21
1.35103089930161e-20
2.63606082877376e-21
6.38728355080304e-21
5.82473593044517e-22
8.5718093285919e-22
1.38461661396987e-21
1.25548843759919e-21
2.78003272959472e-21
5.75928163505971e-21
5.26149320621587e-21
3.75092484217777e-21
6.26290874103461e-21
3.7331630123477e-21
7.96837703629722e-22
3.77788624718812e-21
3.02985617613818e-21
3.54857257485595e-21
1.46777997591309e-20
1.41969003638411e-21
4.75825192836884e-22
2.91183956094784e-21
7.9676661348721e-21
1.44246458366469e-21
9.02067826542261e-21
5.27126659658318e-21
6.19631580226255e-22
4.67239193413969e-21
9.2226987795986e-21
2.381529854743e-21
9.52829087161415e-22
1.18144127341412e-20
1.13339037318795e-23
1.8452689916196e-20
8.37166493927737e-22
5.3189705991564e-21
1.62469565994256e-21
8.15606924475132e-21
5.20299443155551e-23
4.21277768118481e-21
1.78070061877215e-20
4.89126392922315e-21
4.74210818358442e-21
2.36601140543089e-21
3.66314194922712e-21
5.51422370060202e-22
5.95040384532741e-21
1.33050197342588e-20
1.50064696543649e-21
4.22865371336216e-22
5.0353875741036e-22
9.72667173644688e-22
4.58258146804469e-21
2.83074126407842e-21
1.21438347250624e-20
2.99530473904431e-22
4.75120049936948e-21
2.23819448875965e-21
3.40042664332356e-21
2.91185443828579e-21
6.40824257246196e-21
1.04331955445539e-20
2.63658527242296e-21
6.56708493102647e-21
5.11483543945344e-21
4.02856989742543e-21
8.95471150514098e-21
6.98168333471885e-21
1.02791351879498e-21
1.84291693571847e-21
1.68550985713612e-21
1.57494387510924e-21
8.55559741357056e-22
2.9218774213484e-21
5.36505574003202e-21