/*--------------------------------*- C++ -*----------------------------------*\
| =========                 |                                                 |
| \\      /  F ield         | OpenFOAM: The Open Source CFD Toolbox           |
|  \\    /   O peration     | Version:  v1706                                 |
|   \\  /    A nd           | Web:      www.OpenFOAM.com                      |
|    \\/     M anipulation  |                                                 |
\*---------------------------------------------------------------------------*/
FoamFile
{
    version     2.0;
    format      ascii;
    class       scalarField;
    location    "0/lagrangian/dsmc";
    object      ERot;
}
// * * * * * * * * * * * * * * * * * * * * * * * * * * * * * * * * * * * * * //


99998
(
2.47407976293258e-20
2.16140945057732e-19
2.82904373706713e-19
1.70293311744148e-19
7.17462127042171e-21
2.23908364661502e-19
2.96889990003814e-19
2.52586934121418e-20
2.45455406248254e-19
6.89085515928859e-19
2.00900267258138e-20
1.45891737958952e-20
7.35740119687989e-20
1.56296734525258e-20
2.31336663110308e-20
6.69852229208447e-20
2.50694747266659e-19
7.15987307087612e-20
1.68708527969196e-19
3.27701987457549e-19
1.57410672173575e-19
4.93964108186758e-20
5.88976324524995e-20
9.40571839620156e-20
2.03584861804232e-19
3.30116786522949e-20
5.15584214625254e-20
7.54674932006473e-20
1.03276239282062e-19
3.5652505979991e-20
8.44650052132887e-20
7.57790641088815e-20
4.05537461281228e-20
7.67657879844401e-20
5.58133521872533e-19
7.25966344566642e-20
2.90685552265073e-19
4.22062123184801e-20
1.04793641977737e-20
1.03102269805693e-19
1.91404273642176e-19
2.3069625901742e-20
8.53483323416003e-20
7.54655152110058e-21
1.85188975295558e-21
1.66212252213626e-19
9.22892839036023e-20
1.39665909131455e-20
3.06807744772184e-19
1.51446961213035e-19
2.96624896571787e-20
3.40099262874588e-19
2.12081759187857e-19
1.76370050644462e-20
2.4950015454411e-21
1.52291269661535e-19
5.48248576056454e-20
4.98671558364371e-19
7.45250157380379e-20
6.05112857876446e-20
1.43963514670464e-19
1.63717918958934e-19
1.22342248083503e-19
4.54559723022907e-20
3.59335097501378e-19
2.55115950626925e-19
5.21983601665985e-20
1.88415824087956e-19
1.07168167482523e-19
5.09869551510667e-20
7.96611982440375e-21
4.79222331823957e-20
3.42154417901123e-19
7.38539715092121e-20
5.34003362744365e-19
5.64119752887804e-20
2.20764593109469e-21
2.71514666089017e-19
6.71366098215909e-19
5.15232133668014e-20
4.54928977985897e-20
3.3497576786442e-20
1.65893633382328e-19
2.11715659215831e-19
3.98359359092732e-19
2.83415406151921e-19
2.4212877737171e-19
1.37770996895643e-19
3.07431590318146e-19
3.19321519943757e-20
6.14954947922989e-20
3.26892494932217e-20
1.72603634323703e-19
1.59423553657184e-20
8.00945971684697e-20
2.73073100103417e-19
2.71534010474087e-19
3.73056918313307e-20
9.6249994184425e-20
1.9693423606503e-19
1.0801530005224e-19
4.12631312870669e-20
1.04439665725796e-19
1.3289011355694e-19
1.39514953047042e-19
5.51816295080571e-20
1.92663185136444e-19
1.95105264906285e-20
9.52888848564121e-20
1.58911819493037e-19
3.89514939272774e-19
1.10575511439389e-19
6.86369901182008e-19
4.21485583918206e-20
4.09550263033796e-20
1.48371910145941e-19
1.26232213653532e-19
2.48334964202905e-19
3.01863808108707e-19
9.34847104695632e-20
2.48682482947687e-20
6.32344394116407e-20
3.76771316242417e-19
9.75877764834335e-20
1.87930863867769e-19
1.91783433923951e-20
2.65784104810933e-20
2.43116139634635e-20
1.91333137070468e-19
2.41226429871344e-19
4.86701987738916e-19
1.67424036627292e-20
6.58989325614293e-20
3.02030919815585e-20
3.34785806890505e-19
2.35156134420799e-19
9.10546867442341e-20
5.46162755560422e-19
2.29156981177447e-21
4.63603639103054e-20
9.6293115682616e-20
4.91937726900888e-20
7.70053262439607e-20
1.72911248799921e-19
5.53475656336118e-20
3.94617336874192e-19
3.98888159802564e-20
5.72025142989896e-21
5.77643453146058e-19
7.02498792051403e-20
2.56782712773164e-20
4.12169634482103e-20
1.9357382556016e-19
1.75917581006117e-19
4.53987297198315e-20
3.01457257796049e-20
1.82123842107602e-20
1.98085773891132e-19
1.64836437117873e-19
3.27635120048667e-19
2.12238152602162e-19
2.85024073741773e-19
1.56975292050177e-19
1.26586450128135e-19
1.00173928057252e-19
4.89446795388595e-20
1.61298608668158e-19
6.02299392133627e-20
2.8797983977754e-19
6.13724166286961e-20
1.72194438455663e-20
9.3244444822564e-20
4.5938955419134e-19
1.1329804428141e-19
1.39735904192116e-19
2.60627336247388e-20
3.14840344060645e-19
1.05728405960385e-19
5.09544020477494e-19
1.64039455628751e-19
4.54364424804774e-19
1.65070838055757e-20
3.93714564225762e-19
2.37604329677279e-19
3.17376926305115e-19
3.33910537618237e-20
9.74518442412724e-20
7.13152285280477e-20
1.45959915651741e-19
9.50863180898449e-20
1.10548531592635e-19
3.23516139847808e-19
4.23145796578147e-20
5.0783705856339e-19
1.13039353593869e-20
4.00800182807364e-20
2.11734124375011e-19
2.85355550274964e-19
8.35686815165825e-21
6.29002833706635e-19
2.17234113905725e-19
6.7143521790433e-20
1.29782877200689e-19
1.20912711286569e-19
2.73178806964852e-20
2.76658710257211e-20
5.8773318142517e-20
8.31735432376016e-20
2.78995421531396e-20
3.32152580350057e-19
1.43509072107059e-19
1.61642663371586e-19
6.8113990477903e-20
7.35129063617974e-20
9.2831314411582e-20
1.10578886156475e-19
1.53259733917941e-19
5.37304125235969e-20
2.34798254286746e-19
1.17346335010444e-19
1.96883091791448e-20
1.53607259463737e-19
1.45153207369073e-19
4.16699028111822e-19
1.71520681337354e-20
2.03024308891358e-19
6.00167793399307e-20
1.18819528682691e-19
4.71395912972515e-19
5.2182672139273e-20
1.4376343813448e-20
7.92296106242395e-20
2.19063111500129e-19
1.25822097489091e-19
3.47568455915207e-20
2.86286673167225e-20
1.07607273538854e-20
1.26285860658156e-19
8.16903871336702e-20
2.76545972005595e-19
5.55825015406385e-20
3.68287637440527e-20
2.47562455496152e-19
3.42671775312324e-19
2.96857565023083e-20
6.46518094648942e-20
5.62061843153261e-19
9.46662732144074e-20
1.7789512175939e-19
1.52234191427867e-19
6.66370501812023e-21
1.19715962487334e-19
1.42040483945985e-20
4.39799358985741e-19
1.44246464032601e-19
6.87757182275267e-20
4.03681476335314e-19
2.41338861992166e-19
1.79822160574396e-21
1.03117563333664e-19
1.41804487577112e-19
8.01071097050093e-20
8.68980642132509e-20
6.46001598843016e-20
7.34206804770979e-21
3.11445196728673e-20
6.59699052121481e-20
1.3694562484677e-19
8.66018742163891e-20
8.61267240490019e-20
1.69156530512015e-20
2.82603163015294e-19
2.16160266866526e-19
1.0132532370866e-20
4.00767121334622e-20
3.43178932231446e-19
1.70686325576931e-20
1.78206553953588e-19
2.52452899935323e-19
9.81730709768714e-20
2.88537529333332e-19
7.3299474035876e-21
1.28133083898293e-19
6.23651871335823e-20
3.54066115030351e-19
3.25386403608594e-22
7.09772339768417e-20
1.36652762100716e-19
1.65904162650387e-19
5.02207538528836e-20
1.42523884186256e-19
3.964870889568e-20
8.50509649138269e-20
6.45100481817764e-20
3.27614395044059e-19
1.58095090555969e-19
2.11331771914682e-20
4.69858788152894e-19
2.58486208312061e-20
2.36134300484653e-20
4.80292253556975e-20
1.7462622972613e-19
2.64272036283316e-19
3.15337401041628e-19
4.14185738184507e-21
3.86914113308222e-20
1.22352654136985e-19
7.39896770044874e-20
4.58411254675576e-19
2.56080652903012e-19
3.88971555047141e-20
2.89347334198502e-19
1.07660737820736e-19
6.49156164519474e-21
1.56529918264964e-20
2.32470768692134e-19
4.46469486823292e-20
4.61495169058063e-20
2.73341353154865e-21
3.81694288606985e-19
1.41587959520902e-19
1.22877513576772e-19
1.29965819491247e-20
6.22683149661157e-20
3.05196776617642e-19
1.46791851446728e-19
2.70380816132209e-19
6.65559023409149e-21
5.92504921085554e-20
2.79456274467835e-20
5.92452088847147e-20
1.19175720238483e-19
9.5823673181594e-21
1.2065912644689e-20
7.11082630822948e-21
5.60213302574881e-20
2.01491833299718e-19
9.09066007001075e-20
3.01549053524506e-20
3.06323060675892e-19
9.52220091398314e-20
4.36595100204807e-19
4.29094356463916e-19
2.98662363830425e-20
6.65024668328268e-20
3.4491495338373e-20
3.7125897780952e-20
2.428348323776e-19
4.44239445252374e-19
3.26237381321822e-19
8.54741118941542e-20
9.54232110379389e-20
1.85837052301536e-19
2.55134638290819e-19
7.66383794303296e-20
7.76881234285586e-20
3.02096671292484e-20
9.46950422279734e-20
9.20186015591195e-21
2.00913212749234e-19
1.04540473431957e-19
1.85459320951527e-19
2.61947057601091e-21
4.42354643988934e-19
3.35040633411851e-19
4.49101309688333e-20
5.97688904330769e-20
5.86789482857692e-21
1.53383636969806e-19
9.36677563176694e-20
2.11357735393699e-19
2.46365267673813e-20
9.09327074391538e-20
1.3565154313924e-19
1.78726847205773e-20
5.93523394992321e-20
5.16192370448327e-19
1.22839571723623e-20
9.49081881251295e-22
4.9592817218691e-21
1.58080513734078e-19
1.34576948953405e-19
5.97321937474886e-20
4.19454204171248e-19
6.58330836900884e-20
2.56655935995688e-19
2.66614743205698e-19
3.64027528221686e-20
1.92219361123615e-20
1.24753599563341e-19
8.68126993419009e-20
3.72489414567291e-19
3.69415816512077e-20
1.50615702155409e-21
3.40267036954024e-20
9.23694132942904e-20
4.84883049058574e-20
1.51829827249213e-19
1.83897497706651e-19
1.81369466519264e-19
8.43982630403283e-20
4.99056239836882e-19
1.3438716053372e-19
3.98003901740304e-19
2.14103685979394e-19
1.53504588782031e-19
8.97721304324809e-20
1.9052992133566e-19
8.58156936806629e-20
7.33959195651312e-20
1.66348530135295e-19
3.35044411220836e-20
2.24839007129327e-21
2.98072404239332e-20
9.52411961801595e-20
1.0030974158144e-20
1.21548633160624e-19
3.73490962191577e-19
2.27042215235889e-20
6.41604821314037e-20
1.57264855544853e-19
9.25900419362972e-21
1.9167526749752e-20
2.71719053705692e-20
3.19663662914252e-19
2.24953821100507e-20
1.20448099156072e-19
6.0400413504519e-19
2.35477421644557e-19
1.46575149753561e-19
7.6146139468374e-20
5.36424857789377e-20
1.45179973231963e-19
1.22418588319727e-19
5.85609197808368e-20
2.03911579000579e-20
6.60898455584096e-20
9.83272242805883e-20
4.19598234054459e-20
3.00196918162801e-20
3.94337536407201e-19
4.20577922494049e-20
1.21866692684147e-19
1.16755699087116e-19
2.57206854616104e-19
1.04159452179387e-19
6.87260478070496e-20
3.86615036792667e-20
5.95998354984255e-19
8.01257769863427e-21
2.27185069129612e-19
2.45382767497811e-19
2.72829721379953e-19
2.75946057341974e-19
1.66231166016269e-20
2.17333648816755e-19
4.85386106375198e-19
1.52148888854351e-19
2.79730848622657e-19
1.34191198116656e-19
7.83274081421848e-20
2.44775054396299e-20
8.65368038508405e-20
6.6511130473918e-20
1.18663258376247e-19
2.49482429623072e-19
2.22163140708985e-20
7.14828858063486e-21
2.11146665921048e-20
3.33869367020995e-19
6.3870755517361e-20
1.4733808764582e-20
2.55285538399213e-19
4.3903585684681e-21
1.28791600133041e-19
3.92771992419835e-20
1.09512927089158e-19
2.34694376623294e-20
2.60123678591071e-19
5.72842211174287e-20
1.25051892429365e-19
2.53713275214494e-19
1.13923855499148e-19
2.09971048022522e-19
5.29364394991292e-20
4.37586004429312e-19
4.77563848434416e-19
4.96234999454091e-20
1.7328417368027e-19
5.03619794785055e-20
6.02804729857467e-20
1.3821419615377e-19
8.39632358653658e-20
2.43288730062816e-19
8.8320296013306e-20
1.40002358919346e-19
9.89223601730017e-20
1.31135882005955e-19
2.36129832392989e-19
4.28068672278175e-19
8.3744559485755e-21
2.79301340291066e-19
1.64381603591545e-20
3.03072429686137e-20
6.52380721933916e-20
1.41611868285229e-19
3.44434924718229e-20
5.96867381454483e-20
1.25903948620576e-19
4.17352439172706e-20
6.86625327511405e-19
6.58360908123665e-20
3.17144564155713e-20
4.33868154013974e-21
6.17522198751346e-20
6.48411098134702e-20
3.64545192005746e-19
6.04836524617217e-20
3.38696383413007e-20
9.74867395758112e-19
4.22016525612465e-19
7.19388746118675e-20
3.31613402831358e-19
1.77674565368716e-19
5.05967563314871e-20
5.29666431893014e-20
2.1851772205535e-20
1.4146217046544e-21
3.14380090580451e-19
8.65340039016494e-20
1.97918261224635e-21
1.08534689286959e-20
9.54509474737857e-20
1.34349765666188e-20
1.62937354435622e-19
2.98365304716747e-19
4.75902362971861e-20
4.56117363731968e-19
9.26595994796822e-20
7.49135624325891e-20
4.93326337217171e-20
3.76706922275256e-20
9.30367181425128e-20
1.17641695755555e-19
1.15244585127159e-19
4.28894558363217e-19
8.87560726597095e-20
9.26291347986772e-19
1.74105231866323e-19
2.06269285876074e-19
1.97572250667619e-19
2.04173335270465e-21
5.22677443319105e-20
2.35511829968882e-20
3.21323554538924e-19
8.86534333445884e-20
1.41161736198707e-19
2.14808453912e-20
2.03141055548137e-19
4.66259768747444e-20
3.01636069054892e-20
4.28884116645342e-20
5.79654257821005e-20
2.27134927871601e-20
1.00628876370368e-19
4.58355923806409e-20
2.70873457168073e-20
1.04581964654991e-19
9.51357497529403e-20
2.18506185831107e-19
1.12615677753268e-19
2.36063650519691e-19
2.19454122601493e-19
3.39997440321948e-19
1.91602945678363e-20
2.41757361262872e-20
9.46180522500697e-20
4.59383711592807e-19
1.5051477125586e-19
1.66489351353765e-20
6.48693438033059e-21
2.58617347846792e-20
4.49683092481139e-20
2.67905184734859e-19
2.790693963069e-20
3.98614882166922e-19
3.01553899153426e-19
3.05598219716712e-19
4.41794455534492e-20
1.19272481367557e-20
2.24233859797979e-19
8.71567754150078e-19
2.96108829298811e-20
8.1930217285224e-20
1.47434435064914e-19
2.11194682902521e-20
2.30757364562218e-19
2.21795710445694e-19
2.68058316495616e-19
2.33160163070842e-19
3.81772059951521e-19
2.15229306456209e-19
7.09417123882705e-21
1.47129751802708e-19
2.78006168301705e-19
9.33483550994357e-20
1.66155814619668e-20
3.80179373983699e-19
1.30175614487419e-19
2.12277507963688e-19
2.88712711983813e-19
3.00457434494687e-19
5.91149233191535e-20
1.45287417324534e-20
1.5382723921467e-19
2.12699166022097e-19
1.65371883068908e-19
5.3126830492555e-20
3.65840500562502e-20
1.59325270386729e-20
1.03356308350344e-19
1.15308897261062e-19
5.25842039034528e-20
5.84848420076461e-20
5.63562783012635e-20
9.09109354919288e-20
8.29126624357632e-20
4.33806935458335e-20
5.37288712937916e-20
2.63664266111655e-19
6.2526409751938e-20
3.48533254411174e-19
4.76514915913988e-20
1.63405059030709e-19
4.65202383102955e-19
5.39021537154022e-20
9.13383161838077e-20
2.94261225208654e-20
1.51376723603902e-19
6.43111768063228e-19
8.0050724922151e-20
2.76099686856084e-21
1.00251256966939e-19
7.60860604829295e-20
2.88994635097068e-19
2.17600645374734e-19
3.09545580958731e-19
8.60389904459299e-20
1.3324340906109e-19
1.53257542255251e-21
8.68264668497774e-21
2.20800660170118e-19
1.11732782500278e-19
2.66312611470482e-19
2.93058876920725e-19
8.0670827053564e-20
2.15767112047247e-20
1.53270375575156e-19
8.40522986908689e-20
2.67851305349155e-21
2.09398645654244e-19
2.08847883257602e-20
5.6566521626263e-19
2.16448409180981e-20
9.77895547794058e-20
3.13673056161706e-20
5.97762047165596e-20
1.37896259425948e-19
6.36445099369928e-20
1.6574729197658e-19
7.08410147695534e-20
6.51939099867521e-20
9.00868599740447e-20
9.62814682919029e-20
2.86629124121575e-20
3.60451651698345e-20
8.41083285286771e-20
1.09872396304206e-19
2.50746920912849e-19
5.74885029449706e-20
1.73634898226535e-19
8.09921139454203e-20
2.07328146071844e-19
1.62188902171726e-20
5.24632420437016e-20
1.96612709498011e-19
6.33751766464624e-20
1.42199817415942e-19
1.91265896554569e-19
2.97692848393499e-20
3.7177067613529e-19
2.88961628509793e-21
1.78014800681946e-19
4.87672380062632e-20
2.1681226941692e-19
5.55933705042971e-20
2.73890087117441e-20
5.56553877373947e-20
2.84231551409825e-19
1.5977262327289e-19
5.6823590949547e-20
3.41457746045427e-19
8.03323920525325e-20
1.32896308060025e-20
7.82863624432627e-20
9.77521362989764e-21
1.12716918590723e-19
4.16375200396345e-19
6.99751352013265e-21
1.92562734052095e-19
2.20280463772436e-19
1.36703153889505e-20
1.3311784667495e-19
2.71796069372979e-19
2.08767363607635e-19
1.15921856051398e-19
3.65661868187212e-20
9.67207830687427e-20
6.83834793597969e-20
1.17457782835219e-19
2.5315758699803e-19
7.66008019095439e-20
1.89891465088001e-19
1.3366844687455e-19
9.54734473621608e-20
1.10632394347828e-19
2.543127427123e-19
6.17110079901612e-21
2.56583073494436e-19
5.94652197949468e-20
4.72712647986504e-20
2.90084869171071e-19
5.32267873932783e-20
8.39774357119016e-20
3.79275052904154e-19
8.33849393811329e-20
8.15117082773337e-20
1.67938760048287e-19
8.44644194526888e-22
1.24862994860783e-19
3.36618426323352e-19
1.09900377256481e-19
1.09710649314778e-19
1.93642957680264e-19
1.34669857517107e-20
1.52990982786478e-20
9.37522924330881e-20
7.80421491724088e-20
1.32795061473025e-19
1.41812745915413e-19
2.34349485228001e-19
5.79835022866046e-20
7.76397707628744e-20
2.13424333349454e-19
8.98200180520628e-20
4.04372627134253e-20
2.01021266309488e-19
6.92827091332723e-20
9.97938009934316e-20
1.04591383809225e-20
1.50874139055767e-20
1.9203443772226e-19
2.63268453566452e-19
3.87054944303707e-20
1.86289635725948e-19
5.66987172736609e-19
2.9166335294337e-19
1.38034847645522e-19
6.77936756530293e-20
1.23075036471269e-21
1.49680812143792e-19
1.62791529762052e-19
5.7819363443945e-20
2.52977326418668e-20
1.12112013616873e-19
6.19584861819731e-20
4.0121651428236e-19
1.76912161710235e-19
1.74344448888153e-19
7.22720855398848e-20
3.45784888746566e-20
1.79455347195294e-19
2.29586130231829e-19
1.69929529088343e-19
5.22409542538078e-20
3.68798519333236e-19
5.47208769019716e-19
3.56283146488402e-21
5.80808469597015e-20
1.36891866607494e-19
7.10870117055127e-20
6.39033262623496e-20
7.20225536456757e-20
1.14267249655265e-19
5.00769570826017e-20
4.49449591863737e-20
2.85095617666533e-19
8.13188226328684e-20
3.81754397216948e-20
2.54526295577074e-20
2.40422797122363e-19
1.682236624131e-19
6.7100484133026e-21
4.77457140987846e-19
9.21662387190194e-20
3.67050423337327e-19
7.30325379696814e-20
3.31598534927757e-20
1.54773779393793e-20
4.61288699075561e-20
2.76852867359006e-19
1.99789398011176e-19
7.65346960151415e-20
2.5334702305423e-19
1.90743838625598e-19
8.63639224543428e-20
4.72311551407463e-20
2.11352818577375e-19
1.00882713099758e-19
3.63882486564108e-19
1.59737158857908e-19
8.0336318300069e-20
2.17083119090648e-19
1.01230057942316e-19
1.0226955385328e-19
7.11225484657676e-20
6.7774218073698e-19
1.20278573732545e-19
2.94418854058709e-19
6.15278265849727e-19
9.88649178497583e-21
8.15586427569446e-20
3.27293511888904e-19
1.55416416249944e-19
6.5768229650786e-20
1.60138999121494e-20
2.20580969080925e-19
1.29581779833998e-19
2.60077556836259e-19
2.63476382370636e-19
2.50251168628176e-19
3.44058604592976e-21
1.83026201276727e-19
4.49769628067731e-22
3.51388140608204e-19
4.72843054299451e-20
2.92403800776821e-19
5.71458624950446e-20
5.97517322585176e-20
8.4561565794777e-20
5.15634435969039e-19
8.42245513529349e-21
1.17952406317392e-19
1.76151017687557e-19
1.39418927443999e-19
2.11745510354636e-20
1.08346889112158e-19
7.39964676226981e-20
3.95970127503962e-20
3.09279806512584e-20
4.71568941841504e-20
2.18015950114733e-19
1.08002961496337e-19
1.16531556985113e-19
1.88064510124522e-20
2.24151808956348e-19
4.47469203596924e-20
3.05167509009407e-19
2.11089138969686e-19
9.59003509930555e-20
6.11899686584252e-20
2.30205844001873e-19
2.63997121809464e-20
6.53956312781839e-20
2.06834216144523e-20
4.25529225131792e-20
1.10917977938099e-19
2.0696138555759e-19
1.82078979773859e-19
1.19785915430586e-19
4.46751340004571e-20
1.23564345605249e-19
2.28823759503558e-19
1.77755871807924e-19
2.28023810775355e-19
6.58746462001991e-20
5.28661850782712e-20
1.30035075164324e-19
2.63330028440841e-21
5.91744734713874e-20
2.91264435879796e-19
7.66521927231945e-20
1.41194087960285e-19
2.11029455834532e-19
2.77310233840227e-20
3.96765784138704e-20
7.64749744486519e-20
3.24399505691765e-19
8.92147463290946e-20
2.33266691123535e-20
1.86838122259055e-19
1.6604585593853e-19
1.82614934408556e-19
6.04311182123131e-20
1.07732586290001e-19
1.40401567787676e-19
3.37258243619229e-19
1.323795907182e-19
3.40829965107671e-19
3.36331263536684e-19
9.54755814559213e-20
9.29660619306266e-20
1.63247804691231e-19
9.90625812989097e-22
4.45352610441189e-20
9.87655294460782e-20
4.91417804068159e-20
1.2141250030328e-19
1.7231488947594e-20
1.968222317483e-19
3.89666217195728e-20
3.72380942216796e-20
3.21754889939979e-19
5.97100244449224e-20
5.66657116710404e-21
7.47546790598804e-20
2.77692263583458e-19
3.08408640550695e-20
6.10948096703699e-21
2.25842587652589e-20
3.49235993657766e-19
2.3967815761642e-19
5.1931240894589e-20
6.45201678374514e-19
2.43048566690122e-20
1.51176599832285e-19
1.4684045847174e-19
4.55195273063737e-20
1.09639920067977e-19
2.4434687778145e-19
8.31805371854669e-20
2.51531082347904e-19
7.95569203108607e-20
1.26861907641528e-19
1.08859403273945e-19
3.78798678200969e-20
3.35681530135137e-20
2.06474920498038e-20
6.65111138055731e-21
2.86958553343558e-20
2.60197246934095e-19
3.98781046986012e-20
6.9200620634341e-20
4.71373028911951e-19
9.91188205173458e-20
1.32595935463971e-19
1.95585498074126e-20
3.48330331409427e-19
1.35614711817971e-19
2.39758328834079e-19
7.67086824137215e-20
1.44400814240093e-19
3.94503446426719e-20
1.29804406446514e-19
5.4238858594788e-21
2.60903472273246e-19
1.35461237814793e-19
7.48254163325265e-20
6.38817816224629e-21
7.16401529266756e-20
2.52965531080521e-19
2.43260541717437e-19
2.00574579504786e-20
1.21389288630691e-19
1.05464793445252e-19
1.5814029088619e-20
5.83082725260836e-20
2.74933986800117e-19
3.22736685154235e-20
2.82468831516321e-19
1.40082492879437e-19
1.95813748290844e-19
9.47191825378247e-20
2.57120408502964e-19
3.31459587752639e-19
2.10965037161411e-19
5.2268942837875e-20
1.85126301792935e-20
2.48187305686624e-19
5.44239927380594e-19
1.07947686997508e-19
1.19516905125294e-19
3.56734264609412e-19
1.3023883953203e-19
4.11137958515673e-20
1.62043721484701e-19
1.74907196979051e-19
2.83515496367108e-20
2.48786147168762e-19
1.71863901680851e-20
6.11001547510629e-19
2.10909154057908e-19
2.86621951210533e-20
5.67818301009601e-20
3.16359709436073e-19
8.15654334210823e-20
4.28878254096289e-20
2.30948548282182e-19
3.72670218326893e-20
7.07284989020146e-20
2.41094853193182e-19
4.15213425658483e-19
1.40263448976609e-19
4.69122864228534e-19
2.01647269270913e-20
1.41689990560276e-19
4.39172652975852e-20
1.64262548027845e-19
4.49343830297266e-21
7.32417209535261e-20
1.31947559206852e-19
6.80375887502655e-20
1.63095498654564e-19
2.41319883283691e-19
5.06938540539213e-20
7.81110046885318e-20
6.11802393328254e-20
1.15252560321302e-19
6.89121187560643e-20
1.57550440705058e-19
2.62127292561221e-20
4.73875960994155e-20
1.37123513135002e-19
1.93043708981929e-20
9.24243663355125e-20
6.87898529143991e-19
1.06150461315431e-19
9.17231797202687e-20
1.79690187477508e-19
1.46387616288381e-19
9.05599758312069e-20
4.99581088677041e-20
2.10043425916547e-19
6.14706924781701e-20
6.94821913754333e-20
2.27249546617948e-19
3.9347426236776e-21
1.23511969873874e-19
8.10224208324281e-20
6.9242529059667e-21
8.00705126792178e-20
8.82197525589056e-21
1.02002422305667e-19
4.2907448687887e-20
1.32385067055964e-19
1.28121092894723e-19
1.80402901905655e-21
1.79660529936849e-19
2.33820190146692e-19
2.19004576359261e-20
1.21861628676826e-19
5.50391140644457e-19
2.14722597693025e-19
1.25859114110587e-19
6.5700815059269e-21
5.79682191854784e-20
3.54165936401382e-20
7.2900538277247e-20
1.99470010786135e-19
4.08247136703197e-19
3.55636469548587e-19
1.67357787525535e-19
3.47959216433441e-20
4.40827648251328e-20
2.40624459307778e-19
1.92321607036043e-20
1.25004408466105e-19
3.9921945534443e-19
2.67045773524402e-19
1.04767849132873e-20
1.74425943803567e-20
5.85470796107323e-20
2.06136630222061e-19
1.79699823862787e-19
9.91686738812142e-20
1.7753741622306e-19
5.93234850161396e-19
1.89708252217595e-19
1.14395408493811e-19
1.53345967348951e-19
1.72072434410988e-19
8.59626676649176e-20
1.28796853071483e-19
3.59951303499126e-19
1.8245868905113e-19
1.89981498017186e-21
4.95503893726304e-20
9.23690493197601e-20
2.1983828577145e-20
6.5212090904211e-20
9.97185380777794e-20
3.46195838837645e-19
4.42341413954043e-20
4.34259275441846e-19
4.72670314519478e-20
2.81668167010158e-20
4.01720155440641e-20
2.12530105546019e-20
7.03609920691928e-21
6.56133040653736e-20
9.65615210058609e-21
7.84367027126586e-20
4.2042260322423e-19
1.52054989991403e-19
2.39665963891059e-19
1.99331891226166e-20
6.80463661456329e-19
1.68212016822175e-19
6.67517579017913e-20
9.43902246411863e-21
2.83528463067586e-19
9.67062006492234e-21
1.16797367198693e-20
6.72251684627745e-19
6.75965229168844e-20
4.41182266841761e-20
2.09061754006894e-19
1.17579366087673e-19
3.81969098377017e-19
4.81317053597579e-20
5.17888625420096e-19
9.02694647079302e-20
1.65800090200397e-20
2.58760518028008e-19
1.74726589925009e-20
1.14743216872062e-19
2.64590538115022e-20
1.83289844386808e-19
9.7987198210738e-20
3.20735905687527e-20
1.54602213192805e-19
1.0320355456277e-19
2.00493635117716e-19
9.63987189162554e-20
2.81437054523378e-20
7.46243606635478e-21
1.67969821688522e-19
6.96905869154446e-20
2.52281027872078e-19
2.39986407011146e-19
2.77335031622871e-19
3.27762879823665e-20
1.25296592977495e-19
1.16840500402946e-19
1.69150060400899e-19
2.77516897065752e-21
9.40450961369766e-20
8.41944972723193e-20
1.65846864887365e-19
3.94859704342462e-22
1.43857995413476e-19
1.44397199051545e-19
1.44430484079291e-20
2.20991875182556e-19
4.48208082366704e-19
3.1921903136803e-19
6.65121913211552e-20
2.47086193494218e-19
2.60057986211368e-20
3.13533111996437e-20
2.28810661536701e-19
3.57892362438224e-19
5.71587884123744e-19
6.52407847814918e-21
8.47207740355182e-20
1.04456228517062e-19
5.38912938221047e-20
1.07637664096568e-19
1.50847276035478e-19
8.87162742113838e-20
2.97614908776508e-20
6.22099930643602e-21
4.72784170635955e-19
6.1816601491967e-20
1.48538867021352e-19
6.38356108662064e-20
3.03444370615134e-22
6.0614819880389e-20
2.48144412490289e-19
2.68574908397233e-19
3.45721542806577e-19
1.49596678476415e-20
1.83951938139812e-20
1.79699845263929e-19
2.78701716042337e-20
3.78236417097606e-20
1.61129792213225e-19
9.34239277284941e-20
2.35725116974864e-19
2.71887593534315e-19
5.81264654848877e-20
4.97067589292684e-19
1.13701080184746e-19
2.62424311939003e-19
5.50518164526156e-20
1.62902959141567e-19
1.56704289828792e-19
1.57673636472362e-20
2.24923163276544e-19
9.80807929765389e-21
7.07567739713444e-20
8.61646341486492e-20
5.80433586010504e-19
3.12984541822186e-19
8.06953705083875e-20
6.79801664977089e-20
3.06521121397164e-19
1.84479983740824e-19
1.31799265944081e-19
1.06625855070125e-19
2.20017477520495e-19
1.45329893381997e-19
1.69457396792191e-20
6.20491923204548e-21
1.09465248291434e-19
3.86377909256616e-20
4.81542484021861e-20
5.07772986435175e-19
1.60749536012397e-19
2.93713482503243e-19
2.36487220143893e-19
1.29339393065649e-19
3.09671279592662e-19
4.82074084771659e-19
1.57332941463349e-19
6.90091602289167e-20
3.74910481317923e-20
6.28212693433241e-20
2.9421536208215e-21
2.21928847914793e-19
4.56372612078235e-19
1.05782072073634e-19
5.99553172992831e-20
3.2272781788949e-19
3.13426205777369e-19
8.12842918539218e-20
3.3103454902501e-20
2.14927204050219e-19
5.64345690850502e-19
1.59098616286041e-19
3.06028838972693e-22
1.96946711482956e-19
6.04105575315713e-20
7.13085321530158e-20
1.32735849592518e-19
7.0665771813353e-20
2.37484478650308e-20
7.5715037309103e-21
3.79342285749617e-19
4.06544295467374e-20
5.01003040178892e-20
4.87019761257044e-19
9.39002495676784e-20
5.42882434584562e-20
1.75188886966142e-19
2.08064719429499e-19
2.32774848427819e-20
1.89403432999078e-19
3.24972302060054e-19
2.30038938686005e-21
5.2559009140338e-20
4.30965407559359e-21
6.4505954390412e-20
1.56576352212346e-19
2.25736295784411e-19
1.06471560138149e-19
3.18073906006452e-19
1.43541460380537e-20
1.32788635707711e-19
1.86340165151856e-19
4.31470254180011e-20
4.70573330677558e-20
4.73584939021174e-19
6.00965891691906e-20
4.59672040785968e-20
1.83266533612969e-19
3.91068461413859e-20
2.86707366738951e-19
5.71863751500995e-20
3.50648658809485e-20
2.58023813365918e-19
1.62274237033017e-19
2.1017294318282e-19
3.52632035325757e-20
8.68964810447821e-20
1.38981041195736e-19
3.62720595253351e-20
1.79377795293813e-20
2.52642101381849e-20
2.8052024940864e-19
3.02119168897762e-20
1.88767508084608e-19
3.39074296441233e-20
1.01998612520049e-19
2.89456097051762e-19
1.30594447490303e-19
1.13067677098045e-20
3.92752234851565e-19
5.94183892110069e-20
7.73508855290131e-20
5.41933578280062e-19
5.89550027886247e-20
3.33816464768349e-20
1.94589915370777e-19
1.70893274900378e-19
3.95846155137644e-19
3.28909812611481e-19
1.69555950521646e-19
8.03290207205782e-20
7.49661704832667e-20
1.96931534697941e-19
5.17185273911339e-20
1.58595838977019e-20
3.49307518324145e-19
5.26555532787861e-20
2.23611644259926e-19
1.07356570057969e-19
6.1326489237769e-20
5.42894603259504e-19
1.03830522689852e-20
8.91186376089056e-22
4.14674800378178e-20
1.95160491513888e-19
1.92374813562947e-21
3.41936656014445e-19
5.4431993924147e-20
1.98993966809071e-19
1.2196024726185e-21
9.84476224014401e-20
1.74026328693258e-20
1.82255851743693e-19
6.32833716616181e-20
1.21027195393397e-19
5.40745074074975e-21
7.07094027302861e-21
3.11782018625064e-20
2.42016786493829e-20
2.29311015552625e-19
2.13830353518878e-19
3.60992309441804e-20
1.53003655973054e-21
7.25487647575905e-20
4.2863531221166e-21
3.38856706230849e-19
1.95637887062806e-19
1.1065534720722e-19
6.91106983082185e-20
6.41628681850759e-20
1.42031810637198e-19
1.70834962817029e-19
2.45640524920823e-20
3.9409832981197e-19
6.676776736057e-19
5.7431536688209e-20
1.18644868377813e-19
2.28237477490224e-20
3.51052992529973e-21
9.08978237593101e-20
1.08468043831268e-19
4.20088982531592e-20
2.21522594957702e-20
7.96206600454551e-21
1.07413944195633e-19
1.99922123614935e-19
3.08981927633716e-19
4.60090906566258e-19
1.71305896561614e-19
9.2977013071875e-20
5.39452547229329e-20
2.37031715829315e-19
2.66931658273483e-19
1.26178869428516e-19
4.50664958860321e-20
3.43783852556971e-21
6.74980064652213e-20
3.63160893221312e-21
3.54484499755394e-20
8.99009669401436e-20
2.36628107688445e-19
1.22121541987932e-20
2.98038170830418e-19
6.44099990789611e-21
4.76814209860398e-19
2.00587765034566e-19
4.76902969722666e-20
1.47728266836974e-19
1.23881617316774e-20