/*--------------------------------*- C++ -*----------------------------------*\
| =========                 |                                                 |
| \\      /  F ield         | OpenFOAM: The Open Source CFD Toolbox           |
|  \\    /   O peration     | Version:  v1706                                 |
|   \\  /    A nd           | Web:      www.OpenFOAM.com                      |
|    \\/     M anipulation  |                                                 |
\*---------------------------------------------------------------------------*/
FoamFile
{
    version     2.0;
    format      ascii;
    class       dictionary;
    location    "0.0025/uniform";
    object      time;
}
// * * * * * * * * * * * * * * * * * * * * * * * * * * * * * * * * * * * * * //

value           0.00250000000000000005;

name            "0.0025";

index           123481;

deltaT          1.937984496e-08;

deltaT0         1.937984496e-08;


// ************************************************************************* //
