/*--------------------------------*- C++ -*----------------------------------*\
| =========                 |                                                 |
| \\      /  F ield         | OpenFOAM: The Open Source CFD Toolbox           |
|  \\    /   O peration     | Version:  2.3.0                                 |
|   \\  /    A nd           | Web:      www.OpenFOAM.org                      |
|    \\/     M anipulation  |                                                 |
\*---------------------------------------------------------------------------*/
FoamFile
{
    version     2.0;
    format      ascii;
    class       dictionary;
    location    "constant";
    object      hTCProperties;
}
// * * * * * * * * * * * * * * * * * * * * * * * * * * * * * * * * * * * * * //

hTC2Model  laminar2<rho2ChemistryHTC>;

active    off;

laminar2Coeffs
{}

mixtureOutputs
{
    molarFraction       off;
    numberDensity       off;
    partialDensity      off;
    partialPressure     off;
    degreesOfFreedom    off;
    vibrationalEnergy   off;
}




// ************************************************************************* //
