/*--------------------------------*- C++ -*----------------------------------*\
| =========                 |                                                 |
| \\      /  F ield         | OpenFOAM: The Open Source CFD Toolbox           |
|  \\    /   O peration     | Version:  1.7.0                                 |
|   \\  /    A nd           | Web:      www.OpenFOAM.com                      |
|    \\/     M anipulation  |                                                 |
\*---------------------------------------------------------------------------*/
FoamFile
{
    version     2.0;
    format      ascii;
    class       dictionary;
    location    "constant";
    object      transportProperties;
}
// * * * * * * * * * * * * * * * * * * * * * * * * * * * * * * * * * * * * * //

rarefiedParameters
{
    mfpModel                       variableHardSphere;
    writeMfpSpecies                off;
    writeMfpMixture                on;
    
    characteristicLength           0.05;
    writeKn_overall                on;
    
    writeKnGLL                     on;
    writeKnGLL_components          on;   
}


transportModels
{
    viscosityAndThermalConductivityModels   "see thermophysicalProperties";
    mixingRule                     molar;
    writeViscositySpecies          off;
    writeViscosityMixture          on;
    writeThermalConducSpecies      off;
    writeThermalConducMixture      on;               
    
    multiSpeciesTransport          noSpeciesDiffusion;
    binaryDiffusivityModel         noBinaryDiffusivityModel;
    
    
    //- Models coefficients
    LewisNumber 1.4;
    modifiedLewisNumber 1.77255e-5;
    
    constantBinaryDiffusivityModelCoefficients
    {
        allSpecies  1.0e-5;
    }
}


  collisionIntegrals
  {
    involvingNeutral
    { 
        Omega11
        {
            N2_N2 (-6.0614558e-03 1.2689102e-01 -1.0616948 8.0955466e02);
            N2_O2 (-3.7959091e-03 9.5708295e-02 -1.0070611 8.9392313e02);
            O2_O2 (-8.0682650e-04 1.6602480e-02 -3.1472774e-01 1.4116458e02);
            N2_N (-1.0796249e-02 2.2656509e-01 -1.7910602 4.0455218e03);
            O2_N (-1.1453028e-03 1.2654140e-02 -2.2435218e-01 7.7201588e01);
            N_N (-9.6083779e-03 2.0938971e-01 -1.7386904 3.3587983e03);
            N2_O (-2.7244269e-03 6.9587171e-02 -7.9538667e-01 4.0673730e02);
            O2_O (-4.8405803e-03 1.0297688e-01 -9.6876576e-01 6.1629812e02);
            N_O (-7.8147689e-03 1.6792705e-01 -1.4308628 1.6628859e03);
            O_O (-6.4040535e-03 1.4629949e-01 -1.3892121 2.0903441e03);
            N2_NO (-1.9295666e-03 2.7995735e-02 -3.1588514e-01 1.2880734e02);
            O2_NO (-6.4433840e-04 8.5378580e-03 -2.3225102e-01 1.1371608e02);
            NO_N (-1.5770918e-03 1.9578381e-02 -2.7873624e-01 9.9547944e01);
            NO_O (-1.0885815e-03 1.1883688e-02 -2.1844909e-01 7.5512560e01);
            NO_NO (0.0000000 -1.1056066e-02 -5.9216250e-02 7.2542367e01);
            N2_NO+ (0.0000000 9.1205839e-02 -1.8728231 2.4432020e05);
            O2_NO+ (-3.7822765e-03 1.7967016e-01 -2.5409098 1.1840435e06);
            N_NO+ (-1.9605234e-02 5.5570872e-01 -5.4285702 1.3574446e09);
            O_NO+ (-1.6409054e-02 4.6352852e-01 -4.5479735 7.4250671e07);
            NO_NO+ (-8.1158474e-03 2.1474280e-01 -2.0148450 6.2986385e04);
            e-_N2 (-1.0525124e-02 1.3498950e-01 1.2524805e-01 1.5066506e-01);
            e-_O2 (2.3527001e-02 -6.9632323e-01 6.8035475 1.8335509e-09);
            e-_N (0.0000000 1.6554247e-01 -3.4986344 5.9268038e08);
            e-_O (9.9865506e-03 -2.7407431e-01 2.6561032 4.3080676e-04);
            e-_NO (1.0414818e-01 -2.8369126 2.5323135e01 7.7138358e-32);
            
            N2_N+ (-1.0687805e-02 2.4479697e-01 -2.3192863e00 1.0689229e05);
            O2_N+ (0.0000000e00 8.7745537e-02 -1.8347158e00 1.9830120e05);
            N_N+ (-4.0078980e-03 1.0327487e-01 -9.9473323e-01 2.8178290e03);
            O_N+ (-1.5767256e-02 3.5405830e-01 -3.0686783e00 4.6336779e05);
            NO_N+ (0.0000000e00 8.6531037e-02 -1.8117931e00 1.8621272e05);
            N2_O+ (1.0352091e-02 -1.5733723e-01 2.9326150e-02 2.1003616e03);
            O2_O+ (0.0000000e00 9.3559978e-02 -1.9842999e00 4.3097490e05);
            N_O+ (-2.4288224e-02 5.6305072e-01 -4.6849679e00 2.7303024e07);
            O_O+ (-3.8347988e-03 9.9930498e-02 -9.6288891e-01 1.9669897e03);
            NO_O+ (8.3856973e-03 -1.0972656e-01 -3.3896281e-01 5.2004690e03);
            N2_N2+ (-2.9123716e-03 9.6850678e-02 -1.1416540e00 7.9252169e03);
            O2_N2+ (-4.0893007e-03 1.7795266e-01 -2.3800543e00 5.1949298e05);
            N_N2+ (-1.4501284e-02 4.1085338e-01 -4.0115094e00 1.5735451e07);
            O_N2+ (-1.6923472e-02 4.6067692e-01 -4.3294966e00 2.5538927e07);
            NO_N2+ (-9.2292933e-03 2.9813226e-01 -3.2899475e00 4.9147046e06);
            N2_O2+ (1.2405624e-02 -2.0452111e-01 3.5478475e-01 1.0778357e03);
            O2_O2+ (-8.9520932e-03 2.2749642e-01 -2.0758341e00 6.7674419e04);
            N_O2+ (0.0000000e00 8.3065769e-02 -1.7501512e00 1.0846799e05);
            O_O2+ (-2.9417970e-03 1.5129273e-01 -2.2497964e00 2.9325215e05);
            NO_O2+ (1.3731123e-02 -2.3920299e-01 6.7093226e-01 4.0068731e02);
        }
        
        Omega22
        {
            N2_N2 (-7.6303990e-03 1.6878089e-01 -1.4004234e00 2.1427708e03);
            N2_O2 (-8.0457321e-03 1.9228905e-01 -1.7102854e00 5.2213857e03);
            O2_O2 (-6.2931612e-03 1.4624645e-01 -1.3006927e00 1.8066892e03);
            N2_N (-8.3493693e-03 1.7808911e-01 -1.4466155e00 1.9324210e03);
            O2_N (-1.0608832e-03 1.1782595e-02 -2.1246301e-01 8.4561598e01);
            N_N (-7.7439615e-03 1.7129007e-01 -1.4809088e00 2.1284951e03);
            N2_O (-8.3110691e-03 1.9617877e-01 -1.7205427e00 4.0812829e03);
            O2_O (-3.7969686e-03 7.6789981e-02 -7.3056809e-01 3.3958171e02);
            N_O (-5.0478143e-03 1.0236186e-01 -9.0058935e-01 4.4472565e02);
            O_O (-4.2451096e-03 9.6820337e-02 -9.9770795e-01 8.3320644e02);
            N2_NO (-6.8237776e-03 1.4360616e-01 -1.1922240e00 1.2433086e03);
            O2_NO (-6.8508672e-03 1.5524564e-01 -1.3479583e00 2.0037890e03);
            NO_N (-1.4719259e-03 1.8446968e-02 -2.6460411e-01 1.0911124e02);
            NO_O (-1.0066279e-03 1.1029264e-02 -2.0671266e-01 8.2644384e01);
            NO_NO (-7.4942466e-03 1.6626193e-01 -1.4107027e00 2.3097604e03);
            N2_NO+ (0.0000000e00 8.5112236e-02 -1.7460044e00 1.4498969e05);
            O2_NO+ (0.0000000e00 8.4737359e-02 -1.7290488e00 1.2485194e05);
            N_NO+ (-2.1009546e-02 5.8910426e-01 -5.6681361e00 2.4486594e09);
            O_NO+ (-1.5315132e-02 4.3541627e-01 -4.2864279e00 3.5125207e07);
            NO_NO+ (1.1055777e-02 -1.6621846e-01 1.4372166e-01 1.3182061e03);
            e-_N2 (-4.2254948e-03 -5.2965163e-02 1.9157708e00 6.3263309e-04);
            e-_O2 (9.6744867e-03 -3.3759583e-01 3.7952121e00 6.8468036e-06);
            e-_N (-1.0903638e-01 2.8678381e00 -2.5297550e01 3.4838798e33);
            e-_O (-1.7924100e-02 4.0402656e-01 -2.6712374e00 4.1447669e02);
            e-_NO (0.0000000e00 5.4444485e-02 -1.2854128e00 1.3857556e04);
            
            N2_N+ (-7.0776069e-03 1.7917938e-01 -1.9102410e00 4.6736263e04);
            O2_N+ (9.8019578e-03 -1.4699425e-01 3.9382460e-02 1.5112165e03);
            N_N+ (-1.4271306e-02 3.0401993e-01 -2.4573879e00 5.3694705e04);
            O_N+ (-1.7907392e-02 4.1207892e-01 -3.5343610e00 1.4987678e06);
            NO_N+ (1.1716366e-02 -1.9289789e-01 4.0269474e-01 6.0891590e02);
            N2_O+ (1.8733000e-02 -3.6163781e-01 1.6947101e00 2.5244859e01);
            O2_O+ (1.4207970e-02 -2.4736726e-01 7.4561859e-01 3.2519188e02);
            N_O+ (-2.1681211e-02 5.2300453e-01 -4.5118623e00 2.3467766e07);
            O_O+ (-1.6032919e-02 3.7114396e-01 -3.2050078e00 5.8099314e05);
            NO_O+ (1.8015337e-02 -3.4415293e-01 1.5658151e00 3.3303758e01);
            N2_N2+ (-1.6447237e-02 4.7759522e-01 -4.7641986e00 2.9127542e08);
            O2_N2+ (-4.9176811e-03 1.9694738e-01 -2.5025540e00 6.8213629e05);
            N_N2+ (-1.2882395e-02 3.7306469e-01 -3.7106760e00 7.5444981e06);
            O_N2+ (-1.7420606e-02 4.7126950e-01 -4.3841087e00 2.8275095e07);
            NO_N2+ (-4.0133981e-03 1.7290664e-01 -2.2855449e00 3.6429320e05);
            N2_O2+ (2.2455421e-02 -4.5106797e-01 2.3763420e00 4.7754696e00);
            O2_O2+ (2.8664463e-02 -5.8087240e-01 3.2564558e00 6.6890428e-01);
            N_O2+ (1.1205000e-02 -1.8182149e-01 3.2624972e-01 5.5186183e02);
            O_O2+ (0.0000000e00 8.3446262e-02 -1.7191179e00 8.0539928e04);
            NO_O2+ (2.2679271e-02 -4.5710920e-01 2.4427275e00 3.6733514e00);
        }
    }
    
    shieldedCoulombPotential
    {
        Omega11
        {
            attractive
            {
                Cn  -0.476;
                cn  0.0313;
                Dn  0.784;
            }
            repulsive
            {
                Cn  0.138;
                cn  0.0106; 
                Dn  0.765;
            }
        } 
        
        Omega22
        {
            attractive
            {
                Cn  -0.146;
                cn  0.0377;
                Dn  1.262;
            }
            repulsive
            {
                Cn  0.157;
                cn  0.0274; 
                Dn  1.235;
            }    
        } 
    }      
  }
