/*--------------------------------*- C++ -*----------------------------------*\
| =========                 |                                                 |
| \\      /  F ield         | OpenFOAM: The Open Source CFD Toolbox           |
|  \\    /   O peration     | Version:  v1706                                 |
|   \\  /    A nd           | Web:      www.OpenFOAM.com                      |
|    \\/     M anipulation  |                                                 |
\*---------------------------------------------------------------------------*/
FoamFile
{
    version     2.0;
    format      ascii;
    class       scalarField;
    location    "0/lagrangian/dsmc";
    object      ERot;
}
// * * * * * * * * * * * * * * * * * * * * * * * * * * * * * * * * * * * * * //


47648
(
1.905038088138e-20
2.90734184679554e-21
1.98115715556096e-20
3.54967756403904e-20
6.20055499114722e-21
2.47498380769309e-22
2.62015657736254e-20
1.07357325706535e-20
9.40479352143086e-22
1.65625369465752e-20
1.3631425603293e-20
1.0368624186792e-20
1.11246016635839e-19
2.86023556925317e-20
4.60995187090007e-20
1.46979549127096e-20
2.01632480184951e-20
1.33024636232862e-20
3.21947838853944e-20
3.48547668844086e-20
1.11928286494063e-20
5.05979148060319e-21
1.91291036043546e-20
4.18138888722805e-20
1.42229230767905e-20
1.9382101747288e-20
1.92178572758238e-20
1.56619741003263e-19
2.619703571418e-20
5.32892399878839e-20
9.29388838735244e-21
1.06683079700115e-20
5.83058586546125e-20
1.69356768055659e-20
1.72979663892143e-20
3.281951573304e-21
4.26816542794241e-21
1.75380477938632e-20
2.88561796312714e-20
1.1812822451911e-21
1.20862720814145e-20
9.23032263930071e-22
5.78766387861738e-20
2.61310752122348e-20
5.84703847559658e-20
6.21974868686887e-21
1.68499217197181e-20
1.58071145469538e-19
2.28071483628392e-20
3.15769483528795e-20
3.80786711485987e-21
8.42172960823408e-20
2.47610565093593e-20
4.73960054126719e-20
2.01509747084499e-20
1.00257227117711e-21
2.0342557024993e-20
1.30657121619056e-20
6.68746605322851e-21
8.69373162327542e-21
3.27666777921289e-22
2.55023865563591e-20
3.64961060252127e-21
3.15030251175731e-20
7.33004874478396e-20
2.41072140571349e-20
1.22703514440404e-20
3.43460563343386e-20
2.73634252907974e-20
2.58192837495101e-20
1.64743334639245e-21
1.09338698239322e-19
2.73924940808188e-20
5.82431304681181e-20
2.21017364545768e-20
2.51822455709406e-20
1.15863829584943e-20
3.18200549581032e-20
2.51727466381094e-21
6.52083067033269e-21
1.63423982656229e-20
5.09565243248425e-20
9.77014714396385e-21
6.65109018220997e-21
1.24316892592101e-20
4.67657841022426e-21
1.37089056393285e-19
6.99997997114746e-22
1.29080917871368e-21
1.63304408026218e-20
7.70196670754285e-22
7.18143152478605e-21
1.97895368562602e-20
8.55736957870134e-20
1.08647521217203e-19
1.82670752505654e-20
3.56297939098997e-21
8.53684132212173e-20
4.32963177343862e-20
3.07658985840649e-20
2.8716211343633e-20
1.1537207683772e-20
1.90375555209559e-20
6.25368337725867e-20
8.7586666418334e-20
4.74630061524252e-20
1.0606727019806e-20
9.05882373619573e-21
4.30532706096441e-21
2.22067122756259e-20
2.08007234470304e-20
2.93019156569049e-20
5.18744537160283e-20
1.6508249438346e-19
9.50353497437425e-20
2.85176138833308e-20
5.29394199312082e-20
1.2769918584197e-20
4.25172992682176e-20
1.37604314861039e-20
1.56997785118249e-20
4.64369362300776e-21
2.74819309616733e-20
1.43069269499566e-20
2.4265850013686e-20
6.9515486473108e-21
2.23038168492684e-20
2.01686243841017e-20
6.81421661482735e-20
5.06921776216095e-21
3.16155440039927e-20
6.23838671249962e-20
4.52191591245784e-21
6.74062924630601e-20
2.10995639112569e-20
2.89997497174636e-20
4.02633638094761e-20
5.27524077519416e-23
1.91843902573555e-20
9.76494582557095e-20
5.34087274928762e-21
2.53089688736997e-20
1.29145325081407e-20
3.63545785463283e-20
6.59185839408735e-20
9.07911163190796e-22
2.63850921850948e-20
7.13761361334658e-21
9.63508759370373e-21
4.78705333433048e-21
2.83181646227644e-21
1.2604986827725e-20
2.57754523791747e-21
1.94536061221235e-20
1.47393448203773e-21
3.12366265834477e-20
3.06564091782129e-20
2.72900265012946e-21
1.32962812232305e-20
2.54760850909805e-20
5.01926949042799e-20
3.02689808396508e-21
4.64060451121459e-20
1.16829422299637e-20
1.77788269016799e-20
1.56945894883229e-20
1.80067221375479e-20
2.10318556505509e-20
2.7801720602954e-20
2.56376460267759e-21
1.96071309665264e-21
1.81246888294658e-20
5.31730265598228e-20
4.35640959545419e-20
6.46805227510823e-20
3.1099503445354e-20
3.58980024025756e-21
5.70621178628971e-21
4.4034540068485e-20
3.03995485411735e-20
3.02602167526643e-20
6.81633050978536e-21
6.21056471590368e-20
2.85987257461558e-21
4.18305675867613e-20
1.79764985889118e-20
2.16317461763007e-20
2.49485147183229e-20
1.65236578894586e-20
3.46308426988565e-21
6.19839197028868e-21
1.45935630279796e-20
3.90731564089341e-20
5.92553930019706e-21
3.84756639511956e-20
8.10495385429159e-21
6.78916252621822e-21
2.02139238036109e-20
3.50917467362612e-21
3.2454690261483e-21
1.06494652887711e-19
1.74292999350201e-20
1.40459155340254e-20
1.19390882573892e-19
3.28656556431496e-20
8.12760685343227e-22
2.10539103840457e-20
9.06543525924441e-21
2.53095349321663e-20
3.64147352503597e-20
6.05900979467721e-20
4.30249034210431e-20
1.64837556529193e-21
2.85205552793496e-20
1.09143068360208e-20
1.00561527482811e-19
3.77883814338498e-20
6.15591023964987e-22
1.80435864854507e-20
6.85817312079616e-21
2.68787223377476e-20
4.45863147368996e-20
2.0042191716982e-20
8.42356498072304e-20
1.89365554904815e-22
4.31746537836933e-20
8.21996762252511e-21
8.9061282936098e-20
3.40808049631929e-20
9.36890883849355e-21
8.30476851854756e-21
1.66896109501048e-20
8.60037970817012e-21
2.27024694009044e-20
1.57414435113811e-20
4.36667113911219e-20
1.14953956710994e-20
1.57789304849357e-20
8.81455280745247e-21
3.48278425078011e-21
1.73522190967697e-20
9.10010588187569e-21
3.88540940719254e-20
4.54436410695724e-21
2.94749455555049e-20
4.65235520392066e-21
2.14572577660554e-20
9.68338479118898e-21
2.40021455697971e-21
6.4513448679945e-21
8.1872354514732e-21
7.07936299996659e-21
8.33109439269565e-21
6.20638975725747e-20
1.68774689628987e-20
3.74265947511453e-20
2.2174123131334e-20
2.98577243396906e-20
1.9145329725213e-20
3.22309262066643e-20
1.36923093525806e-20
4.9365789362446e-20
1.77322783587478e-20
1.20867446539403e-20
2.84889586413584e-20
1.38636570280228e-20
4.69675332919062e-21
1.88087054769922e-20
3.04839257581096e-20
1.04276595818875e-21
1.05927900838074e-20
9.77238889369243e-21
3.73652099855049e-20
1.09725632125465e-19
3.70410547849445e-21
1.37661435828798e-20
1.16776880982401e-20
3.17103653327424e-20
3.05242038493181e-20
3.86082475957532e-21
1.77479527516256e-21
2.74185979433968e-20
1.74540026016748e-20
4.35968282743796e-21
7.76403675764188e-21
5.20702254659083e-20
4.22885173243529e-21
2.68451327943203e-20
6.71058715915923e-21
2.93303515052797e-20
1.08527492958885e-19
7.82340240274347e-20
3.3542557342531e-20
1.74818521179622e-20
5.9474599910111e-20
2.17491200267721e-20
3.54949391228483e-20
6.34361924128763e-20
4.64658425409198e-20
1.32819613745837e-20
6.72530239292692e-20
5.44501269520026e-21
3.94517587817663e-20
8.88461864474889e-21
2.97087274445318e-20
3.2051108154787e-21
1.36468773594332e-21
1.58787799141545e-21
1.87621616563449e-20
5.1030920336605e-20
3.34067398583444e-20
1.2749114987531e-22
1.25463794169639e-20
9.415772127978e-22
4.54845245980927e-20
2.21658183806814e-21
1.25793176519911e-20
9.67046563223775e-21
2.32225012017908e-20
3.94688748122783e-20
4.46756139086799e-20
4.36725797888341e-21
1.56078361083477e-20
1.73185008800084e-20
3.51458349701678e-20
3.48316797597582e-20
1.58940946172896e-20
5.70362594434341e-21
6.37534879648904e-21
1.73481669285082e-23
1.05349972095221e-19
5.43163706754116e-20
4.95835241678878e-20
3.52353784333993e-20
6.21091512366693e-21
6.23083246192362e-21
2.46499122750813e-20
4.30843044877702e-21
6.15110086192608e-20
9.31954566488491e-21
1.66632885184177e-20
1.23921009257754e-20
1.16563900310431e-20
3.64948166257539e-21
3.97811579200647e-20
2.23688844830512e-20
3.73443574702083e-20
4.85031810807396e-21
2.16790491552962e-21
5.12012956181159e-20
2.69318401174611e-20
5.41200434717269e-20
2.02800483957309e-20
5.86865602058413e-21
3.09264192610103e-20
7.18699488566489e-21
7.33702325144326e-21
2.40261578215959e-20
2.87188584739057e-20
4.60170880104146e-20
5.03432685125167e-20
6.81765555392657e-20
2.19679431645913e-20
3.41760321388694e-21
5.15588952321406e-21
4.42345622623547e-20
4.22215102353311e-20
2.1264111398884e-20
2.27475654734397e-20
8.92492905706435e-21
1.01802385113201e-20
3.1645278109599e-20
3.76292793599149e-21
9.14168283282345e-21
6.70608225560388e-20
3.80839829869449e-20
6.44088686239683e-21
5.67652458504003e-22
5.66179702459316e-22
1.01057018207042e-19
2.48789406642334e-22
1.05857379944234e-20
1.32779672930728e-21
5.10019100865151e-20
2.93222807055657e-20
3.1081492428721e-20
1.1755675953452e-20
7.62304630842005e-20
1.05415909925109e-20
7.26500085005446e-20
2.1865441153289e-20
9.20887261075344e-21
3.6033223710731e-20
6.35084031190149e-21
3.65487995259208e-20
4.24718891641719e-20
5.66288930874363e-20
1.98879712867097e-21
1.78339747979101e-20
7.45917991665861e-21
1.24944245975199e-20
5.47399853097369e-20
5.02720065470208e-20
2.89228445368456e-20
1.74001489696095e-20
5.52656112013276e-20
7.01394964314795e-22
1.02369632245969e-20
1.32435991832236e-20
8.73077181346806e-20
1.13106920414075e-20
2.75628894489304e-20
7.25582780630672e-20
1.55358422557105e-20
1.66632164992583e-22
1.32943079987665e-20
1.43027926177183e-20
5.32493080393926e-21
1.13836404782024e-20
2.72879248604689e-20
4.75102816789964e-20
8.457826635414e-21
2.49563037096748e-20
3.41976345165609e-20
6.72623147262737e-21
2.1740639298012e-20
2.43642129677987e-20
4.27157330041266e-20
6.91713529962491e-21
1.81112063073934e-20
2.36294431668629e-20
1.75055125563108e-21
6.64854834469645e-21
4.6872032933851e-20
2.83158511741251e-20
5.32456282919861e-20
1.45424505938027e-20
8.5627237136654e-21
1.98926580869629e-20
1.79197453014077e-20
4.45803660752781e-21
2.13005001513826e-21
1.48848135904916e-20
3.22386732100633e-20
6.14679138214781e-20
2.3190898930673e-21
1.33632413317451e-19
3.62933230654795e-21
2.54381189213711e-20
4.80419099626849e-20
1.11777902737567e-19
2.58801458738367e-20
4.91578483288793e-20
2.2172257451984e-20
1.63590729257737e-21
4.27340915124883e-20
1.22084462047661e-20
1.49777979903955e-20
2.23005843359824e-21
7.16075837729817e-20
5.19461253255606e-20
8.92444019098463e-20
5.40354359200353e-21
6.73930177537649e-20
2.63042281370695e-20
1.55383821860523e-20
2.42672714354426e-23
6.73699354991072e-20
2.74095248737594e-20
3.41299238120026e-20
2.50986524296183e-20
3.16838879986941e-20
2.30702648405384e-20
2.20342640028525e-20
1.17637629831288e-20
1.22127824815569e-19
6.26384636406269e-20
3.28122752620914e-21
3.77677840224946e-21
6.1278765400792e-20
2.10075495195793e-20
6.48063505313799e-21
1.0178003598342e-20
2.60065833022511e-20
4.91780353167861e-20
3.58241703960743e-20
1.77147263863475e-20
3.19635937407211e-21
1.61628115036319e-20
2.53204698694702e-20
2.57588205432667e-20
7.61592756234484e-20
8.04368033200972e-21
3.5121459955292e-21
2.52337403644243e-20
2.5134014902206e-20
2.88845475198459e-20
1.36393687061458e-20
5.99946615931668e-20
2.00089118441013e-20
1.40960373663803e-20
4.46467449416883e-20
1.5756943917594e-20
4.85767356361527e-20
3.11263874229929e-20
1.40022527893441e-20
6.36490880708388e-20
6.36594141560285e-21
3.99914760255523e-21
2.02611273211036e-21
5.93257466619825e-20
4.30823965758715e-20
7.43170709214532e-21
1.09440090285053e-20
2.60437735448281e-20
1.25035166803609e-20
7.03383531258268e-20
1.46899099826243e-20
2.8438919673627e-20
6.30643483948025e-20
2.53069835482167e-20
3.30355267130045e-20
2.95903464942626e-20
8.56092384166082e-23
4.4161676728224e-21
6.41960663895301e-21
3.44490042807407e-20
3.40669097050564e-20
3.61006416755598e-20
5.19478436450991e-21
1.56552337609489e-20
1.09568988357957e-19
8.9299522017e-21
2.79192552603228e-20
4.20745410279009e-20
1.75306892375706e-23
8.46922947866649e-20
2.10254181375639e-20
3.30267478750826e-20
3.41584251933576e-21
1.69890463682868e-20
8.06801746758163e-21
9.09081656207006e-21
4.02057595030791e-20
2.82061586376691e-20
1.11223786264209e-19
2.0230812019564e-20
5.61389321785893e-21
2.56375378231089e-21
3.12546770285991e-20
1.81518192098831e-20
1.5974097863622e-20
2.72865187006141e-20
4.16551791541694e-21
2.04266925159401e-21
1.03103911807005e-19
8.99484006253043e-20
8.63698851568791e-20
3.68962604927506e-21
4.65438628823813e-20
2.54780658067409e-20
8.05231253552586e-21
6.98569883376412e-20
2.71000387984572e-20
7.60561191652287e-20
2.71117180358045e-20
3.84723004908519e-20
2.34623695613333e-20
2.25235116245563e-20
1.62220978820405e-19
1.05458707621036e-20
1.23998991780654e-20
1.21894835616303e-21
5.36701245737321e-20
4.49050257226461e-20
3.53406287972238e-20
2.75203047044529e-20
1.13911058915671e-21
3.00287208486744e-20
8.39429464220599e-20
6.89017451167814e-21
2.84031420710505e-20
9.75405154466282e-21
5.01697375998092e-20
1.77776486020449e-20
4.77512407448779e-23
2.31390583770247e-20
5.81403707463996e-20
1.94855593872275e-20
2.20434155337327e-20
2.42344790260023e-21
2.1318184352248e-20
8.57631094603576e-21
3.86731097322986e-21
3.38777381756681e-20
3.36028273943353e-20
1.66853713507047e-19
3.71470115494564e-20
1.62539440229221e-20
5.89544782598611e-21
3.00938490004804e-22
3.56625692967308e-22
2.55954290749544e-21
2.45539836172773e-20
1.23836299715335e-20
2.58287702359517e-20
1.13725896198599e-20
3.4684073702113e-20
2.63625370107888e-20
6.50637296261761e-20
1.00919555535908e-20
3.23356464004941e-20
3.18648572739836e-20
1.95275226397625e-20
1.07114516510345e-19
7.35578819737047e-20
8.21384753652572e-20
1.55041585492535e-20
2.88364016930136e-20
6.03431655922919e-20
5.63167829183947e-20
6.89514246156641e-21
8.00104704901258e-20
5.15302493909047e-20
3.3951249278368e-20
3.53669460457004e-21
3.91186837643386e-21
1.86990022407466e-20
9.99381759977046e-21
1.65710535442641e-21
4.23500773675187e-21
8.4764888563922e-21
1.2959446300555e-19
6.10945479607889e-21
1.72709712261832e-20
7.56819259936785e-20
4.32185132622292e-20
4.22941024661505e-20
1.10022620679133e-20
2.31351800428632e-21
5.73249364384316e-20
3.52310269217735e-20
6.27856670671986e-20
2.13273880475962e-21
2.03719953367448e-20
2.00351488338777e-20
1.64638412777255e-20
6.77218815585867e-21
8.51077837181887e-22
3.12861931870468e-21
1.4811135036248e-21
1.85277344382048e-20
3.12199394645463e-20
1.58096268519913e-20
4.17341173530065e-20
4.8207045492924e-21
3.40059280557107e-20
3.3502896536837e-21
3.55822562492392e-20
5.31533906316477e-20
6.82792800271033e-20
6.2971054743715e-20
9.77266401995951e-23
4.41517207669254e-20
9.3986032221986e-21
2.36178727740046e-20
4.87460961725931e-21
5.25717484150183e-21
4.63199948723835e-20
3.20087009589828e-20
8.0487139329435e-20
7.95711847425802e-20
9.14164580675824e-21
1.45710705648225e-20
3.40874827559218e-20
4.56532990031966e-21
2.85620335332564e-20
5.00919549216636e-20
4.19933646108454e-20
3.8899569659065e-20
2.43975479884459e-20
4.77942118087949e-20
1.49770073762562e-20
1.2292605275568e-19
1.30657866345184e-20
4.53686318461648e-20
5.64611301004832e-21
4.10676093122915e-21
4.13868296018895e-21
1.47535375596138e-20
6.00090587804073e-20
2.83293603184179e-20
1.35191624580462e-19
1.36030155437519e-20
1.28917061201836e-21
1.1266780436442e-20
3.17936566305908e-21
3.06993247410323e-20
2.46501042603706e-20
2.64663968512383e-20
4.24252964837511e-21
5.1755619237749e-21
1.2743202005352e-21
1.95099217742789e-19
6.03923533432677e-21
4.66081302183434e-20
2.21534270481659e-20
3.51114718523584e-20
7.26566465165879e-20
4.28976193741896e-20
6.13965052056234e-22
3.9401854382755e-21
1.29275706631697e-20
2.56030314195269e-20
4.53689110268965e-20
6.26481243418647e-20
8.01598421675321e-21
1.12991429558678e-20
1.18516404883666e-20
1.00808921734896e-20
5.74563714713623e-21
1.36662604938825e-20
7.75962456972343e-21
3.34413567561722e-20
8.04472012843978e-21
6.30205047321594e-20
5.80629000455661e-21
3.63650063835057e-20
5.38544228491885e-20
1.73089636214114e-20
1.8040458906819e-20
7.72725799155166e-21
3.05500374668982e-20
3.62452821705361e-20
7.85097432920664e-20
3.095951624988e-20
1.85486351200458e-20
1.60961201188152e-20
2.72938581233705e-21
8.97939887275684e-20
8.75622217618311e-21
1.99303528633566e-20
3.48201233609545e-20
1.02011828528599e-20
8.27397474212958e-21
6.30862345359081e-21
1.83392071513299e-20
2.38173825111815e-20
5.49699699293977e-21
2.6582593390584e-20
1.11437126034914e-20
7.59696658251851e-20
1.30201396910531e-20
4.98243699412438e-21
4.14082413580933e-20
9.74483946619758e-21
1.09351412349878e-20
7.04521505057942e-21
2.37172084337776e-20
4.24587940930787e-20
1.53156012290603e-21
2.41374604310753e-20
3.53312249197323e-20
3.20214893405294e-21
2.97771059149322e-20
2.24597827894382e-20
3.17343043800123e-20
7.8231017968838e-20
4.73280050721352e-21
1.74269532433498e-20
8.2661705972582e-21
3.34507203939416e-21
2.1925228263003e-21
1.03892508011422e-20
4.83659229289966e-21
1.5706791090611e-21
9.66592166773644e-23
4.75033447513688e-21
2.12252462218099e-20
2.22219648864086e-20
3.422220518049e-20
1.26638994800777e-21
1.47067768819172e-21
2.52702927813553e-20
3.328147902008e-20
1.81988570052585e-21
2.55785385267237e-20
4.53060124282664e-21
7.19607848896886e-20
4.27660427644757e-20
3.04663298751932e-20
3.19613934131547e-20
1.46695468476273e-20
2.42189344330243e-20
8.11081507734138e-21
4.02434876960139e-22
5.74025836207555e-21
1.11278012190869e-20
5.84135111606972e-20
2.61485240311494e-20
2.09909534460188e-19
1.53523723296109e-20
3.00391333055226e-21
1.31543423596047e-20
9.73725914592506e-22
7.28555206813103e-21
6.18453133929876e-21
2.78870077842041e-20
1.14972270348358e-20
3.50412310142038e-20
3.67196383803225e-20
5.64917506981921e-20
1.43351864602896e-20
1.23384189780023e-20
5.64941151824003e-20
9.9718658753474e-20
1.5298404528626e-21
2.44950122381906e-20
1.562302122785e-19
3.57292059727044e-20
3.38665231341174e-20
1.18442817282134e-21
9.84890838356384e-21
6.48654836483105e-20
2.67602217611472e-21
8.14638777308297e-21
4.84868948397377e-21
4.20776912790387e-21
2.61135470000655e-20
1.56753975367895e-20
2.56731215491178e-20
5.80520784297516e-20
1.07531545550274e-20
8.04486301042748e-20
5.47631303307897e-21
1.36394456496823e-20
4.01455092917162e-20
3.33865487172305e-21
8.56914235456124e-21
4.15282895501109e-21
2.96256804594838e-20
4.49865374571894e-21
1.29645568333243e-20
4.49607354539356e-20
1.65898775532552e-21
3.32488211857785e-21
1.10496542368732e-20
3.70445792888376e-20
1.46022173046367e-19
4.012381307689e-20
1.07252748868572e-20
1.20821818049092e-20
2.5546881087155e-20
5.25890113747081e-20
1.81295984120023e-20
3.81438456408084e-20
1.01806905069132e-20
3.02604267038313e-20
2.29999624128111e-21
1.19626833152175e-20
1.54707388277685e-20
1.5452098193123e-20
1.40138278331807e-20
1.31566633731581e-20
2.23126868342521e-21
1.34305203557023e-20
1.64658023506352e-19
8.31487471512244e-21
1.5478374026862e-20
2.29389909523666e-21
2.10336825538161e-20
1.78329829257883e-20
1.03708174096028e-20
3.34764211608471e-20
1.88798474152986e-20
8.59332369594839e-21
2.19770009643192e-20
3.64167265518456e-20
2.14798397788243e-20
3.98119165753729e-20
2.00588746650301e-20
1.19563066365164e-20
2.66372904717027e-21
2.29772591006801e-20
1.63895680782026e-20
1.7041387922e-20
2.45727712887728e-21
5.30220581360944e-21
1.3873188014907e-20
1.04839041053833e-19
9.24005130503205e-21
2.40065258328212e-20
9.34144486383159e-21
1.54548543382623e-20
1.36375141384201e-20
3.89437146563465e-21
6.04859235232738e-20
1.39213719403128e-20
2.64550674059192e-20
1.29765578080388e-20
1.7129301167114e-20
1.68388841297982e-20
2.85415211397511e-22
1.29983580186273e-20
2.75184427781132e-20
1.01566520327368e-20
7.68272046194406e-21
3.41206567374659e-21
9.92597438797414e-20
3.38413710098847e-21
4.52259447327719e-20
1.44926041576792e-20
2.39453025306466e-20
4.85640840992963e-21
4.06231333590787e-20
6.62166907266726e-21
5.98305912316278e-20
6.19415169597683e-20
6.70628540383381e-23
2.1007866418001e-19
1.15182769437217e-20
4.33240966840067e-21
7.99857366561513e-20
1.02986511645431e-19
1.56409393365806e-20
2.39063302222405e-20
4.02874471520966e-21
1.35802685234473e-20
1.97804969611483e-20
4.17216998534579e-20
2.91638530562264e-20
1.92019945237931e-20
4.22991455559221e-20
2.42557791544932e-20
1.22819799487287e-19
1.23444740979989e-20
6.13851321305321e-22
1.34692261776205e-20
5.05580094909159e-20
4.83196021111044e-20
6.64437433830901e-20
2.15558763228334e-20
8.20857527464746e-21
1.00061599680013e-20
2.0687245628065e-20
9.70182737560316e-21
9.33429429847502e-21
8.14768957289581e-20
1.65660626722265e-20
2.40630350210945e-20
8.38771996992378e-20
4.26019266616649e-20
2.99529679709156e-20
1.16342502208405e-20
1.87275363390696e-20
2.98860269091355e-20
9.84419654051999e-21
3.27509788799688e-21
8.36725418882741e-21
2.98326442583854e-20
4.20612174102085e-20
1.46200197846675e-20
5.15431141755816e-20
3.80786136561155e-21
1.06429170460804e-20
1.04893937901108e-19
5.50761781127647e-20
3.24292814912236e-20
5.71169381619129e-21
1.46047021842285e-20
3.27933260644231e-20
1.42038366382829e-20
9.68511980446733e-21
2.77543247680635e-20
8.55977389556983e-21
5.39081404310301e-20
4.89972333569135e-20
5.93687233006918e-21
2.56259116711571e-20
1.50300322111049e-20
3.15682434142932e-21
3.34669158215031e-20
1.53231390541362e-20
2.40154943628383e-20
5.73692291457499e-21
2.27540482400383e-20
1.87892976519462e-20
2.34127416928694e-20
2.10618985869338e-20
5.03177705306403e-20
5.88941648855147e-20
6.22796133556534e-20
7.62833224650489e-21
3.57888631501286e-21
3.86605065696837e-20
1.67979468470291e-21
2.62828756045215e-20
8.21978981570918e-21
9.08903881779106e-22
7.85105881318933e-20
1.19017711968649e-21
3.74400586397636e-20
1.33599730766006e-20
7.06302376198672e-21
1.87232070580658e-20
3.07714081894559e-20
1.94376319651242e-20
3.8300465502523e-20
3.43836694834456e-20
1.23659129472746e-20
1.10537358364886e-19
2.66523982201602e-21
1.42571775374056e-21
5.66770259093872e-21
1.07426997349862e-20
2.41060364030844e-20
1.67928109663621e-20
1.98287394909743e-20
5.92527584933514e-20
1.17111017461351e-20
3.78786293591762e-20
1.19670287472564e-20
1.49554740795152e-20
3.08476130128807e-20
2.50742412039883e-20
9.97944590722726e-21
1.5336654887168e-20
8.47840018344004e-21
5.28265751731735e-20
5.69704112214035e-20
3.48624252884618e-20
7.59530417917627e-22
2.63978907751182e-21
2.58284210858453e-22
2.13993005404126e-20
2.90833823229014e-20
1.72128386198015e-20
2.45008991120314e-20
4.0197499632947e-20
5.42758394212438e-21
1.47787447030826e-20
2.07935498752937e-20
1.6911724791485e-21
9.99573778290558e-21
1.92473240482938e-20
4.23858536418429e-20
9.85300551847437e-20
3.08675491443671e-20
4.03234943027965e-21
1.43061143881171e-20
1.5670252082276e-19
1.75696385521852e-21
2.20250359414906e-20
5.63203376069283e-20
2.72037993706675e-20
2.14072433019184e-20
3.58593507354605e-20
1.91323602033059e-21
1.00817360457304e-20
1.71083828076132e-20
4.60011211453e-20
4.85626910792519e-20
7.26451786782686e-21
3.48762194865247e-20
2.78628844059614e-20
1.68634012220869e-20
2.21630109712936e-20
4.37074159542064e-20
2.9939097164194e-21
4.97726882740488e-20
5.26765384404375e-22
1.53192268645862e-20
3.50470927091841e-21
4.00927872122021e-20
5.52209696426066e-21
2.46879795151908e-20
2.80375210724955e-21
6.78566438258076e-20
4.57026099327093e-20
2.264377660023e-22
6.44582819531143e-21
3.4023490444612e-20
2.2573628585238e-20
7.26768422567151e-21
4.34282783704252e-20
1.51143372728196e-20
9.16629209479863e-21
1.67873303942023e-20
3.85885254628045e-20
4.82331772055656e-20
3.24613827994352e-21
9.65524222234971e-20
4.51837919238424e-21
1.37956328179619e-20
2.09690105225374e-20
6.37802703319679e-22
1.41133274450677e-20
3.78203571095966e-20
4.80427400006482e-20
2.22966974306302e-20
6.71639166767916e-21
2.90172992374959e-20
1.99367869856193e-20
4.40562659947848e-20
6.83446541411572e-21
5.70651524546481e-20
3.73496751037917e-21
1.06702760371291e-19
1.16298053363677e-20
3.63060583862023e-20
3.72456090699781e-20
1.63782026042586e-20
5.51964191780264e-20
9.96847712822597e-21
1.27629637316731e-19
3.86340007110035e-20
6.43516265195249e-20
6.47765439988878e-20
2.70253305213691e-21
7.02499434311888e-20
9.20087733166969e-21
2.73362275695502e-20
2.87827142052755e-20
2.93979762532974e-20
5.47068011351313e-20
2.7694705589567e-21
6.64889135124904e-20
5.95465503924873e-21
2.67677478169799e-20
2.46568267444541e-20
3.44079945195581e-20
5.1175760789315e-20
7.5437334474517e-20
6.03147804560157e-20
7.22274447441751e-21
7.29422482810539e-21
3.33800327922927e-21
3.46383457096668e-20
9.81432328971648e-21
7.93527787676344e-21
1.15831622605899e-20
7.52297341495139e-23
5.04990789012222e-20
5.21488435706015e-20
1.29227852632524e-20
3.02872010508695e-20
3.50431665729465e-22
3.86761801412627e-20
4.05234678756507e-21
7.86963281423015e-20
1.48394594892267e-20
3.4146442369922e-21
5.70505561383918e-21
2.03822534511244e-21
1.39965619715777e-21
8.51694415178424e-21
3.56173946836945e-20
6.56195763501393e-20
6.68160582683637e-20
5.56548539962294e-20
1.46363746178879e-20
3.94469418396658e-21
2.86393287604178e-20
2.68593476096156e-20
6.55078064556385e-20
2.78601581382665e-20
1.57672259575222e-20
2.09698332191643e-20
9.39820261040816e-21
4.22544724330032e-21
1.31456258835655e-20
5.15918442108662e-21
2.25852925118228e-20
2.71714332910927e-20
2.36425839373435e-20
1.53850560486963e-20
5.278877706926e-21
5.06408823257084e-20
1.30441755514318e-20
3.22439611429988e-20
3.68305542394271e-20
3.05053479430994e-20
8.85003908339044e-21
4.60291619871708e-20
1.93184290318623e-21
6.1590178286675e-20
2.24808228734389e-20
1.42984008823875e-21
1.51935809022309e-20
6.94453680861517e-20
3.03841210496211e-20
1.27815486253042e-20
5.98454177874686e-21
1.03032347347292e-20
1.85435570126584e-20
1.06413416940837e-21
4.37434957270699e-21
9.2152221326323e-21
3.07289534267971e-20
6.55788479133432e-21
1.19759029786568e-21
3.17060431235159e-20
3.46863342263716e-20
2.24885527270815e-20
2.67429859724941e-20
7.22385889607705e-21
8.15293945223859e-21
1.71212762603004e-20
7.23791157386213e-20
9.58061999326092e-21
3.22537144158433e-20
2.80025291077615e-20
2.6183612256221e-21
7.01824966987343e-20
5.59098078679396e-21
8.62583044497569e-21
1.57623931117277e-20
2.20078757800844e-20
1.4638621311688e-19
1.16391427100246e-21
5.26151894247198e-20
4.52626054376802e-21
2.09466588391719e-20
1.78748309915527e-20
7.17848756301081e-21
7.63214457657507e-21
4.36834491473835e-20
8.68495934137002e-21
2.07660379157002e-20
2.47670363696779e-20
1.2418721165316e-20
1.54796425495599e-20
2.6713683135908e-20
1.30945419430631e-20
6.67642234465169e-20
9.45809874391901e-20
4.73629505693154e-21
2.27507667145118e-20
5.01580993630909e-20
5.66077042198956e-21
1.46642184270463e-20
4.77395981238142e-22
4.19748916442637e-21
1.50369991374247e-20
9.39942111376655e-20
1.75699484406848e-20
2.18791882010063e-20
5.67544175651226e-21
1.10638541902857e-20
1.1916820794308e-19
6.39628199827907e-20
5.14248500011614e-20
8.97348756733334e-22
8.05116658927132e-21
4.72853336217263e-20
4.84096838234237e-20
6.33001378180427e-21
1.03713398103095e-20
6.62112841123102e-20
5.25933128500616e-22
1.00578483692283e-21
1.75945430200897e-20
5.38971384041577e-20
3.06802062614029e-20
2.67473746169576e-20
4.96903558168089e-21
3.53736468390034e-21
6.10689755228413e-22
1.8013062440158e-20
2.784881957604e-20
2.03064783714291e-20
1.84294109759607e-20
2.10762663868827e-21
5.14576497290516e-20
4.5291420454488e-21
5.26425475792772e-21
3.11364837116928e-20
4.67553126422656e-21
7.91612877202846e-21
3.45526354993456e-20
4.22607459777262e-20
2.217882579605e-20
1.35510237565947e-19
3.0482787410109e-21
2.14180932958617e-20
1.87149866582898e-20
1.05284455054224e-19
2.11296772599601e-20
2.89440582482486e-20
3.39751877299148e-20
4.6079594045362e-20
3.79470175143169e-20
1.08660808185992e-20
9.24250137395146e-21
2.13272935590803e-20
5.48747516957272e-21
8.07114513495546e-20
1.21099711862978e-20
1.2276824233741e-20
5.70415137535372e-21
1.75460293600954e-21
6.98307083495829e-21
1.47776175454226e-20
1.69964857622515e-20
2.69505875916553e-20
5.38083197740162e-21
4.27088321500592e-20
1.98538442453706e-21
5.34756418773225e-20
1.15935433919832e-21
6.80134594621595e-20
1.44246974966514e-20
1.65501646208689e-20
4.00270703891332e-21
8.44903320182586e-21
7.26165161164589e-20
3.32365987579806e-20
1.67436209480138e-21
3.33284386401841e-20
8.90164290576403e-21
8.53968063267688e-21
1.29926794843448e-19
9.45444517399514e-20
4.11231823382844e-20
2.49866911998467e-20
1.42991109598264e-20
3.22109914707943e-21
2.06926362765518e-20
1.06719037304322e-20
1.33959280236832e-20
1.09702121152824e-20
2.00853723245028e-20
8.20282562235209e-21
5.59921578928406e-21
1.9751683838337e-20
3.86506407777292e-20
2.12158326242294e-20
1.2862838142634e-20
1.0088254385674e-20
7.3744004354282e-20
8.75733221988307e-21
2.86068799809283e-21
2.69867070638753e-21
2.33066438111571e-20
2.64164863904161e-21
2.29832620084314e-23
5.4605477960927e-20
1.98107584029739e-21
6.84369387863579e-20
1.46904126053525e-20
2.23240676998594e-20
1.2827858152398e-20
8.17498134068084e-20
1.32527976208285e-21
3.0013502309663e-21
1.33379043879365e-20
4.26072488916376e-20
3.43827037593388e-20
3.64463102384144e-21
4.81623465431459e-20
3.56790626156671e-21
3.13839385353112e-20
4.48474217368453e-21
1.93938951792118e-20
3.44067477866121e-20
4.25002170124219e-21
3.96789923362202e-20
8.41494289676536e-21
1.16144824060545e-20
2.68110895083083e-20
1.18990726169689e-20
3.3406425992233e-20
1.40785380735315e-20
1.73675793358892e-20
9.07112848713078e-20
2.41224904549342e-20
1.91726952294882e-20
2.57559872544337e-21
7.5770478860437e-21
6.46290582354338e-20
5.71875721942645e-20
9.69218299768985e-21
3.53692529872893e-20
1.26355304983941e-19
1.92595156331844e-21
1.73190312970185e-20
6.81251277392167e-21
1.75098095671764e-20
5.07672857211632e-22
5.5928462172425e-20
1.17929039442295e-20
1.57586477521704e-21
1.44185059494005e-20
4.94748313639996e-21
1.85032721110273e-20
2.28828128654762e-20
2.4443197440453e-20
5.95919213690645e-21