/*--------------------------------*- C++ -*----------------------------------*\
| =========                 |                                                 |
| \\      /  F ield         | OpenFOAM: The Open Source CFD Toolbox           |
|  \\    /   O peration     | Version:  v1706                                 |
|   \\  /    A nd           | Web:      www.OpenFOAM.com                      |
|    \\/     M anipulation  |                                                 |
\*---------------------------------------------------------------------------*/
FoamFile
{
    version     2.0;
    format      ascii;
    class       Cloud<dsmcParcel>;
    location    "0/lagrangian/dsmc";
    object      positions;
}
// * * * * * * * * * * * * * * * * * * * * * * * * * * * * * * * * * * * * * //

47648
(
(0.00832207087026111 0.00651905675378552 0.00293050232730591) 0
(0.0093897604453708 0.00673348795646325 0.00563326312960838) 0
(0.00985299903174328 0.00925452207791929 0.00435662542516864) 0
(0.00746074822698516 0.00652712543254362 0.00463510642664682) 0
(0.00945994792505795 0.00888135291376544 0.00228527264609005) 0
(0.00862649103763717 0.00839221095401411 0.00606565193318486) 0
(0.00807523213552244 0.00535322295203709 0.00257855738555502) 0
(0.00803449152989623 0.00366855674925715 0.00460217355603552) 0
(0.00995587470349653 0.00239282047849999 0.00733288170736435) 0
(0.00934467595661909 0.00315535390878525 0.00534374799171834) 0
(0.0097600272575969 0.00109596952333098 0.00497367936818728) 0
(0.00753164549276967 0.00504164774258129 0.00540113208254983) 0
(0.00934539557572146 0.00125939763411745 0.00420806120455799) 0
(0.00894362294871185 0.00283237636355258 0.00823792349689759) 0
(0.00817229370237804 0.00406224641342263 0.00546631223773193) 0
(0.000534481103273183 0.00996095560083594 0.0042705323945856) 0
(0.00189967543669995 0.00929516517898472 0.00599188931730998) 0
(0.0039357641335952 0.00798784951412719 0.00422802214053862) 0
(0.00631421126253494 0.00858810841078851 0.00826745685798501) 0
(0.00474314170989198 0.00695494643213907 0.00673326935906834) 0
(0.00245377663666856 0.00998416945673389 0.00748089396645915) 0
(0.00437371052988917 0.00998980605262661 0.00517773867453046) 0
(0.00579444715681827 0.00742453024059984 0.00685466344045818) 0
(0.00722221547237458 0.00944783637558396 0.00506184057054155) 0
(0.00548271790018196 0.00970351476282351 0.00497819755573529) 0
(0.0041646510589111 0.00754337938133936 0.00413194493911092) 0
(0.00687334320784592 0.00802122252723399 0.00470270337292108) 0
(0.00687020384310266 0.0087442236826104 0.00299534330595552) 0
(0.00430815500394511 0.00805718990612883 0.00198488560785352) 0
(0.00550408743299977 0.00892174144462375 0.00357001432991011) 0
(0.00557802003873299 0.00713342936846477 0.00365878953261348) 0
(0.00537403502225642 0.00135987558685541 0.00357603838010503) 0
(0.00903353337689923 0.000666854035131817 0.00107271072414028) 0
(0.00894444952313887 0.000839858318290965 0.00494725994090313) 0
(0.00562500125846087 0.00431366459148952 0.00529339052512063) 0
(0.0083962315489636 0.00104243716985076 0.0059732355889515) 0
(0.00413889220886025 0.000162618811185329 0.00250487393287232) 0
(0.00573173951502453 0.00377460783088695 0.00451764268007219) 0
(0.00317474469076819 0.000764715111799728 0.00133799897740767) 0
(0.0052740526126388 0.00108832951058574 0.00670915929258424) 0
(0.00226691751273561 0.000828700705694825 0.00562019628404437) 0
(0.00300026163102515 0.00267905107187012 0.00678023340983163) 0
(0.00589348874303086 0.000556256773747297 0.00723222390418803) 0
(0.00202280236627756 0.0010920930799873 0.00830697030252528) 0
(0.00584988870634342 0.000661939996049963 0.00815229981705832) 0
(0.00673032693957454 0.000442592314413677 0.00681990362810312) 0
(0.00132200966469197 0.00127793457526037 0.00391714439242518) 0
(0.000378790809177953 3.6558837584284e-05 0.00931894174200009) 0
(0.00325501881693905 0.00514324754904974 0.00543850602831744) 0
(0.000721258105836142 0.00316422465982729 0.00824430745606573) 0
(0.000562492959339291 0.00793625649719799 0.00931911995811584) 0
(0.00120225739632629 0.00221879710720396 0.00637927510931808) 0
(0.00290319751057771 0.00338390373951954 0.00708997875536403) 0
(0.00157386693193299 0.00384708243654117 0.00657605216050989) 0
(0.000330617951353549 0.000464326320597426 0.00802903488887418) 0
(0.00135440790777592 0.0081028062028904 0.00569770309613597) 0
(0.00238550952393526 0.00646308088280334 0.00558389890803076) 0
(0.00407663278485556 0.00587329388891062 0.00518782985310805) 0
(0.00169506360762638 0.00414153340224312 0.00219616878784391) 0
(0.00102317485532055 0.0058076664175098 0.00432796658348963) 0
(0.00153804328007725 0.00379118190816358 0.00195642069565798) 0
(0.001773226383182 0.00817952481605444 0.00773041796275107) 0
(0.00109136463923042 0.00780461063237508 0.00736795630993521) 0
(0.0057682807257525 0.00828677854252323 0.000816579776947677) 0
(0.00521410364094495 0.00595855580088367 0.00112784455500643) 0
(0.000324943970063831 0.000737715560777819 0.000154617343292944) 0
(0.00510199170004894 0.00587927557698487 0.00192920177979294) 0
(0.001901060336239 0.00788409494125633 0.000501086149873888) 0
(0.00353667145774816 0.00971567554707237 4.26577181931798e-05) 0
(0.00302086343856557 0.0055981343243767 0.000788296111190245) 0
(0.0025551721416447 0.00723321960901927 0.00157011337158611) 0
(0.00128887267121625 0.00313389492295388 0.00100232006935757) 0
(0.00624420879423623 0.00357653445515956 0.00328523209043469) 0
(0.00918792532084444 0.00521061963246067 0.000764262377459684) 0
(0.00943941283815777 0.00324427707925471 0.000510183491935816) 0
(0.00246000126241119 0.00137345761911847 0.00104758582412734) 0
(0.00834348651630721 0.00394396604914453 0.000574458728584535) 0
(0.00715110236579113 0.00340716134997715 0.00266754885924916) 0
(0.00708347326045518 0.00515288952521869 0.0014045394974263) 0
(0.0076522812586177 0.00733714926343486 0.000472273766742735) 0
(0.00607117597231911 0.00343815640577079 0.00865872618854835) 0
(0.00810741550910512 0.00674085419218409 0.00895236233117482) 0
(0.00713851163585689 0.00549802369998199 0.007968529707494) 0
(0.00284766839050711 0.00130110118408012 0.00993843823559875) 0
(0.00753848666389962 0.00700753814009675 0.0095698911955345) 0
(0.00253893243465082 0.00244666912061835 0.00916037216052374) 0
(0.00770958031966137 0.00141455345312489 0.00888628028632349) 0
(0.00740303687345738 0.00444194650385592 0.00907510410217229) 0
(0.00709739168961784 0.00984030131465444 0.00989655405760958) 0
(0.00473368485306182 0.00705402345414466 0.0097525615591664) 0
(0.00386358585329505 0.00537558330747563 0.00995597100810221) 0
(0.00110412569257022 0.00111407544487665 0.00958284187538119) 0
(0.0019200405567114 0.00675261280032833 0.00970829586447762) 0
(0.00567151596954075 0.00655315113924273 0.00793603756444997) 0
(0.00255712238626684 0.00724245464152203 0.00822403553497979) 0
(0.017599329557984 0.004069284416386 0.00265066602058747) 1
(0.0195126874593169 0.00206859756671607 0.00160319283753902) 1
(0.0162315190885118 0.00535197342807527 0.0043675975680585) 1
(0.018190472482823 0.00796254463180228 0.00446742942720929) 1
(0.0180691525447848 0.00702783731334057 0.00271340164384464) 1
(0.0198774879152063 0.00593237081700236 0.00340659964347916) 1
(0.0195705208849351 0.0083877307202541 0.00284243855601366) 1
(0.0181506306867774 0.00500698388914287 0.0036673562854444) 1
(0.0195833918345219 0.00109296363301066 0.00352294093795315) 1
(0.0160416058598221 0.004465587661168 0.00563962994917917) 1
(0.0193104839576562 0.003891494197609 0.00409759701042651) 1
(0.018389195719964 0.00541579460455745 0.00749247517848454) 1
(0.0185091591348914 0.00562185511129579 0.00686099156685662) 1
(0.0194055280440443 0.000687544405729224 0.0078581419056505) 1
(0.0194905013318887 0.00294785518041111 0.00792911260587763) 1
(0.0199367479279142 0.00228147867495151 0.00954687358127478) 1
(0.014688242182644 0.00919678499251873 0.00747616175296169) 1
(0.0136906179956649 0.00929113777528981 0.00831689212728312) 1
(0.0117305691094622 0.00864320431589174 0.00549795297506478) 1
(0.0118048542619673 0.00961774150593742 0.00550185279405225) 1
(0.0164978517491306 0.00711507375242563 0.00667706543537973) 1
(0.0124965701723708 0.00940532968431301 0.00388297220078138) 1
(0.0135717221968738 0.00821123352300431 0.00413820772073928) 1
(0.013843282934186 0.00824711757774923 0.00704787657503721) 1
(0.0133127292563449 0.0096501034822712 0.00245339125424829) 1
(0.0145187945958937 0.00854972838320927 0.00440249619654397) 1
(0.018225658808344 0.00909352799152345 0.00730142093200627) 1
(0.0120549814885606 0.0083334553630346 0.00192216196675373) 1
(0.017208985426996 0.00933510096562482 0.00363121246125264) 1
(0.0148867439586606 0.0091639382225476 0.00153241293361083) 1
(0.0171863633145529 0.00964211330247648 0.00682868961702502) 1
(0.0140517351208003 0.00171468751535672 0.00299450788043904) 1
(0.0139124685362802 0.00200310383725037 0.00237089424425333) 1
(0.0170168569074445 0.00150373452471255 0.00487023384416402) 1
(0.0158408760163374 0.00151926734844929 0.00254510050358968) 1
(0.0161693302250118 0.000640965286831747 0.00553573331547112) 1
(0.0162534374408779 0.0027339746440652 0.00604653244912607) 1
(0.0184023220601734 0.00134345875314759 0.00559854885343137) 1
(0.0188056227999151 0.000376709193545324 0.00949813575098364) 1
(0.0157342357780311 0.00136344226963212 0.00857284725293019) 1
(0.0119366996833651 0.00159344548326567 0.00413616085122884) 1
(0.0135248491826915 0.000349171870562177 0.00678624057713398) 1
(0.0120144454486897 0.00105378549026701 0.00302702183605232) 1
(0.0133528415483524 0.00281000903640392 0.00368683268082313) 1
(0.0148788364136123 0.000307862199078226 0.0081617845966341) 1
(0.0124650413151163 0.00034037950008786 0.00251887346889083) 1
(0.0159340732270629 7.98076619262922e-05 0.00625247656987922) 1
(0.0109240998430164 0.00631953330805368 0.000557975747513186) 1
(0.0157235152545593 0.00665230502838373 0.00179985392493215) 1
(0.0158990997948051 0.00723031859747229 0.0023443394312759) 1
(0.0141530311222555 0.00632989649588223 0.00331499772904598) 1
(0.0127111832494526 0.00479152020268606 0.00194632974658051) 1
(0.0157084335597062 0.00784900154019821 0.000203929292687359) 1
(0.0151129881484644 0.0083874534934569 0.00158210682904915) 1
(0.0169736094355965 0.00741606950764078 0.000678231125880746) 1
(0.0172697211152962 0.0017478333616693 0.000267468418485368) 1
(0.0170532238795827 0.00225974991611503 0.00126113920014872) 1
(0.0185137983144037 0.00521193291111539 0.000237047713490224) 1
(0.0165821546919485 0.0043725963528766 0.00208423472111534) 1
(0.016663028256618 0.00400312160697995 0.00160892082770834) 1
(0.0145633326570283 0.00394880946231362 0.00025084165612304) 1
(0.0154812741222734 0.0044665125481548 0.00292251132327239) 1
(0.0171594337199945 0.00155930742030318 0.00865989071995522) 1
(0.0173261720307552 0.00423507251956456 0.00832298091433559) 1
(0.013412309093206 0.00108934023669615 0.00983046709749708) 1
(0.0171226719243573 0.00487072729523854 0.00927217914049097) 1
(0.0173019949380261 0.00725581354912572 0.00893950673494112) 1
(0.0162536084888341 0.00347865536028491 0.00830078429827159) 1
(0.0187250721638341 0.00144525503440034 0.00944154631634886) 1
(0.0146038293174588 0.00555205334716343 0.00805712948167768) 1
(0.0136057382949347 0.00579322323161533 0.00844274890237232) 1
(0.0175917849835012 0.00928766676578791 0.00969802932066413) 1
(0.016343621242381 0.00854854266386736 0.00987565640408301) 1
(0.0128809203634849 0.00349857585462439 0.00924615111682551) 1
(0.0145974987924563 0.00537760941484569 0.00852092133012542) 1
(0.0175668362308131 0.00852398992887137 0.00977742953550399) 1
(0.0117016938084853 0.004715529603028 0.00893638994419605) 1
(0.0110270782209345 0.00481948716282867 0.00292688103467397) 1
(0.0106930046755771 0.00513103719616856 0.00465579168906453) 1
(0.0100606239828333 0.00552529649705813 0.00310854847088669) 1
(0.011486485672852 0.00276403548724581 0.00244407908624755) 1
(0.0113993403232118 0.00708953768867646 0.00570489792865535) 1
(0.0121144681905761 0.00602634509425099 0.00236232928092432) 1
(0.0104250403916308 0.00794785961118363 0.00470376861638341) 1
(0.0101927321175933 0.00783173315203404 0.00236947005103227) 1
(0.0104062550161138 0.00505307576989582 0.00629562164346615) 1
(0.0101240251293742 0.00154568799026231 0.00229002229905484) 1
(0.0101882852565255 0.00255955163709695 0.00265213500070258) 1
(0.0116981098738181 0.00286261547388927 0.00567165258990121) 1
(0.0119257885273593 0.00278597208555068 0.00749676514357128) 1
(0.0115803447693298 0.00197176172650117 0.00625106995966256) 1
(0.011977431877102 0.00632274885996518 0.00754481802243875) 1
(0.01005674710925 0.0040763111548881 0.00532999684245562) 1
(0.0287246046494068 0.00705140306020999 0.00168255497238038) 2
(0.0259802117482087 0.00477231263306512 0.00415525269702924) 2
(0.0276370522807086 0.00543581345350125 0.00375866411151398) 2
(0.0263069428602322 0.00592804974013449 0.00535355943001329) 2
(0.0288951463278816 0.00799994499517405 0.00740745466989365) 2
(0.0291897120587324 0.00860622512205486 0.00507909395824436) 2
(0.0275837907964778 0.00721506519131543 0.00513261277268269) 2
(0.0283315059195627 0.00683494824917135 0.00728552983360808) 2
(0.0292858841453626 0.00222763645790968 0.00871044491362811) 2
(0.0284537296448099 0.00190804884651483 0.00680537743105516) 2
(0.0296863402792614 0.00541562761982133 0.00678474806472986) 2
(0.0278521350007159 0.00525421297338107 0.00666445146378953) 2
(0.0295590268161969 0.00536520622251105 0.00864898803511172) 2
(0.0274758731058622 0.0028371985316171 0.00465994905617968) 2
(0.028956363627529 0.00270339248598642 0.00475888981719642) 2
(0.0268001092163533 0.00378660361587455 0.00526890247076837) 2
(0.0216841837919522 0.00980557030113951 0.00280602752497748) 2
(0.0258203051161485 0.00971936189552043 0.00907227143953612) 2
(0.0213083639614565 0.00922808234912877 0.00669958843555859) 2
(0.0237793000647388 0.00913673168433613 0.00699265029370705) 2
(0.0239711057871206 0.00902942463582514 0.0086055374748898) 2
(0.0218214122124198 0.00955160017291094 0.00665153784260935) 2
(0.0268532311693073 0.00900323171719735 0.00793968974286868) 2
(0.0260655347898005 0.00994201359288899 0.00823702581131007) 2
(0.021048407816323 0.0091664866704215 0.00798516624203572) 2
(0.027013429413946 0.00706340063803656 0.00328010791186331) 2
(0.0260380115208052 0.00885370906090374 0.00177093902786117) 2
(0.0243835027708295 0.00838885544336287 0.00204964770628036) 2
(0.026913511154089 0.00880534517021223 0.00226544804254987) 2
(0.0286095787261875 0.00879436396981086 0.00744693422714446) 2
(0.0233344494378372 0.00901623867209091 0.0026548433322686) 2
(0.0267062542183632 0.00798959146301813 0.00506993137010676) 2
(0.0237183273859067 0.00839083720838437 0.00187318314905385) 2
(0.0291690708879253 0.00947846683899089 0.00790631292307259) 2
(0.0273326726225739 0.00230661237191695 0.00661185096855329) 2
(0.0289287664834637 0.000226913594412252 0.00736191075808858) 2
(0.0285508559150822 0.000286557397646714 0.00439910325752644) 2
(0.0275088629585797 0.00225444938950797 0.00620027995613967) 2
(0.0233416391322318 0.00197019531559961 0.00236299995164591) 2
(0.027266009074385 0.000369823447945254 0.00464133503863076) 2
(0.0245891245052457 0.00162706998250844 0.00269347547773904) 2
(0.0234687851055675 0.00140852664992268 0.00738059278217799) 2
(0.0262222205322621 0.0033138230697285 0.00645300848662954) 2
(0.0234827491401197 0.00106658861317005 0.00839915130173267) 2
(0.0233224420187135 0.00121177633615394 0.00667418281135754) 2
(0.027466429342339 0.000720045349225326 0.00807545424346953) 2
(0.024437100566675 0.000955543418826412 0.00898298293175641) 2
(0.023707871371145 4.3852843526917e-05 0.00770546589349978) 2
(0.0254111482165242 0.00170297308623251 0.00769787556250961) 2
(0.0210969748877805 0.00830981220053179 0.00107323473439131) 2
(0.0227471671259725 0.00810434244282719 0.000559625259077716) 2
(0.0243471328346494 0.00604931223735537 0.00307450453131345) 2
(0.0217870070738428 0.00644230529288952 0.00130241764143344) 2
(0.0231892498935099 0.0084511133582726 0.000516070987857855) 2
(0.0216112075739074 0.00701698036405352 0.000272884712534012) 2
(0.0246498537182018 0.00527157014107004 0.000894343747444033) 2
(0.0257960556160674 0.00613655949991339 0.000245591506447251) 2
(0.0220259352576584 0.00746528046568232 0.000308522300720693) 2
(0.0296262721851945 0.00707178657391159 0.000155073044381862) 2
(0.0248386346849608 0.004750904077773 0.00150747046595724) 2
(0.0241110194870252 0.00405923925830889 0.0013347471883746) 2
(0.0262878614016834 0.00423893959212259 0.00268694033612936) 2
(0.0266960976526123 0.00376501473116336 0.00145229856301869) 2
(0.0248672584136563 0.00284840192005548 0.00273808733144309) 2
(0.0265080474628338 0.0027140288531781 0.000207717630568123) 2
(0.0279493215634434 0.00324837485275614 0.00194586405252858) 2
(0.026686030434247 0.00507309181107756 0.00783790085399373) 2
(0.0288178517106827 0.00824577652445607 0.00903720613498288) 2
(0.0258340484913209 0.00571376140177145 0.00911657854673324) 2
(0.0256066012087789 0.00509996793770686 0.00613640528475237) 2
(0.0270390971887718 0.00100800355683473 0.00922946526827635) 2
(0.0268601099710489 0.0056633425587736 0.00804393515052874) 2
(0.0275229023852637 0.00157644221338591 0.00858983840669383) 2
(0.0239661438863506 0.00341231309930565 0.00820334343001105) 2
(0.022984005679789 0.00282623305206636 0.00725956131864885) 2
(0.0217694096894131 0.0028409341900352 0.00956183841998067) 2
(0.0222418495891951 0.00519901819176704 0.00829090030073479) 2
(0.0217211147043945 0.00179791717099267 0.0094551504690741) 2
(0.0226841771152993 0.00444459166179103 0.00823418084941808) 2
(0.0237184379621272 0.00517857239288263 0.00790244484467939) 2
(0.0236886651234614 0.00774022849799978 0.00995159340334625) 2
(0.0229806685508019 0.00689210731847234 0.00719255358789796) 2
(0.0215986206559446 0.00238119964750274 0.00980035321785097) 2
(0.0235841297796929 0.00438843366171147 0.00414533959885345) 2
(0.020795979072091 0.00564005972268196 0.00291912222221613) 2
(0.0242462119753339 0.00504487075687736 0.00463207381494756) 2
(0.0220512813735175 0.00747933546112337 0.00273694234798105) 2
(0.0208600633117183 0.00664938045020715 0.00379455156820413) 2
(0.0233251315981434 0.00585119547859923 0.00564341511899146) 2
(0.0208199361856278 0.0039303583533675 0.00260260208420249) 2
(0.0223234214610696 0.0055046361705201 0.00505178585008334) 2
(0.0205827025042879 0.00926047960343441 0.0056659799806315) 2
(0.0207295945843515 0.00110093340357301 0.00783422599390905) 2
(0.0209470597111872 0.00549216993606136 0.0065593911844555) 2
(0.0218994049583154 0.00536180496018106 0.00583002942859869) 2
(0.0204266387795898 0.00161599148520134 0.00347959660768359) 2
(0.02223792453736 0.00573608220023063 0.00737467276644912) 2
(0.020346129458206 0.00250914229572617 0.00945574265901149) 2
(0.0203767442523216 0.00776493340274593 0.00876267851590088) 2
(0.0200998514188482 0.00494743017024225 0.00883688357636972) 2
(0.0381475876669245 0.00782884275940679 0.00444224166223938) 3
(0.0378398462197032 0.00613924720558694 0.00311837643148232) 3
(0.0399706402106232 0.0063288333062293 0.00131004260112805) 3
(0.0386319742298093 0.00748337974588523 0.0057422508060273) 3
(0.0372145028096381 0.00511849627923334 0.00486092665973272) 3
(0.0399380387374667 0.00722962811844644 0.00417354672357417) 3
(0.0379508484000054 0.00521279801152536 0.00388164085388974) 3
(0.0396594603091186 0.00392516855533954 0.00866088585168603) 3
(0.0388752460247006 0.00363154296567908 0.00876490336791255) 3
(0.0399701486892585 0.00740527152770561 0.00915722409335881) 3
(0.0397738490670353 0.0081987004478413 0.00888547682859711) 3
(0.0369680451921826 0.00545068102857678 0.00691825326148097) 3
(0.0399497303204486 0.00329284768202909 0.00914529816794028) 3
(0.0399862922249241 0.00213824223250489 0.00971063477427491) 3
(0.0331681108889256 0.00687586689542675 0.00540903736408845) 3
(0.0347507822170887 0.00808284201400117 0.00676356367443212) 3
(0.0347659668150256 0.00893240885703458 0.00557283255606256) 3
(0.0311075316741447 0.00964948219595774 0.00231881565440803) 3
(0.0352015228339435 0.00980515430671863 0.00550916676233319) 3
(0.0322877782725449 0.00861642329618926 0.00431455156699888) 3
(0.032243049308789 0.00978213917841188 0.00843607387997107) 3
(0.0349835803448168 0.00803176024114124 0.00703434116198183) 3
(0.0347303357336033 0.00938187780553795 0.00116204264166859) 3
(0.0380774307841629 0.00862885026870867 0.00215328270553709) 3
(0.0336375157319363 0.0074684706203176 0.00342745299630897) 3
(0.0369843471308307 0.00936777847178579 0.00558203914796135) 3
(0.0335536794318506 0.00972496257694965 0.00139563879953394) 3
(0.039355645425421 0.00964968551856936 0.00613097684665563) 3
(0.0373292307169022 0.00842309300372051 0.0021306038650345) 3
(0.0362782189182886 0.00348067004673759 0.00608565098809233) 3
(0.034911926435848 0.00186115991443353 0.00257235645736953) 3
(0.0359178532854405 0.000605575203736688 0.00434001452405139) 3
(0.037103734234327 0.00287298674705619 0.00514600067417303) 3
(0.0343091160104985 0.000860344587622617 0.00246732083030677) 3
(0.0367627507283468 0.00181454429173433 0.00587087204429222) 3
(0.0364030838264627 0.00227996581655733 0.00625486311877813) 3
(0.0376237518810696 0.000867165875841316 0.00528295468355893) 3
(0.0378296882679504 0.00140436648327343 0.00853597389897883) 3
(0.0333345390257398 0.00019362319846282 0.00912191716254414) 3
(0.038803027596125 0.00011336132057961 0.00933621093777196) 3
(0.0313647084155896 0.0012506463088585 0.0031604658328339) 3
(0.0338729374830461 0.000698342156021408 0.00926709724174747) 3
(0.0315978236964922 0.000440021145906737 0.00284881321989024) 3
(0.0324344072995823 0.00113435193056333 0.00584090962576251) 3
(0.0374547221655488 0.00137871543104854 0.00798660596066668) 3
(0.0354689907287059 0.00572752900727046 0.0025963684781463) 3
(0.0330883682131726 0.0089868975439382 5.05886856764981e-05) 3
(0.0312343183726653 0.00334984908080099 0.000339523670096753) 3
(0.0340261367551352 0.00480687215403671 0.00387635165644079) 3
(0.0353284558474552 0.00694397322048962 0.000489180326886878) 3
(0.0329222846073385 0.00300089596205714 0.00106310611792102) 3
(0.0332263429681979 0.00403768443398141 0.000695521767027873) 3
(0.0327695820326111 0.00404635947044991 0.00126950465102126) 3
(0.0390507726956514 0.00648781646756362 0.000128173116138868) 3
(0.0376659632686823 0.00293103235567974 0.000120635156934146) 3
(0.0383756477938722 0.00478947437050623 0.00112703725640332) 3
(0.0372087314971382 0.00389854134044862 0.00106257954658458) 3
(0.0334655685913453 0.00275696676841834 0.000473526609856965) 3
(0.0383464221659266 0.00304720684245799 0.00111815243647465) 3
(0.0344527381822621 0.00140114613483542 0.00129907296234107) 3
(0.038952220108929 0.00482666849636642 0.00943783479735229) 3
(0.0358006337352477 0.00332811049196366 0.0086289979605181) 3
(0.0353339345465194 0.00285378085941483 0.0074108865470056) 3
(0.0338598701034991 0.00360927331211565 0.00931762227358904) 3
(0.0371665916248174 0.00565839520503589 0.00841209433675951) 3
(0.0350229717839579 0.00155623896850651 0.00907510385995229) 3
(0.0382792648850669 0.00827643667353403 0.00966595717051433) 3
(0.0352832668330569 0.00438699486842269 0.00613958709384379) 3
(0.0357200035285175 0.00667118771530033 0.00961271993935251) 3
(0.0369819420340405 0.00844501641300758 0.00953940026464851) 3
(0.031872479452576 0.0093092673699662 0.00968082813435748) 3
(0.0312411050524786 0.00379426259063939 0.00984365556288696) 3
(0.0343780345726999 0.00585727633699767 0.00772043493359428) 3
(0.0317156798300149 0.00565300775255912 0.00833686741968849) 3
(0.0308184175805166 0.00453178529877666 0.00982438535688169) 3
(0.0306617582862078 0.00920750600296094 0.00647005768492379) 3
(0.0309551133532937 0.00721735991270821 0.00446634279516191) 3
(0.0302362183484371 0.00769984674589409 0.00761697911804728) 3
(0.0319596481951861 0.00789910002197219 0.00441930395027564) 3
(0.031487870234351 0.00826462661203655 0.00796568023477503) 3
(0.0314398528689008 0.00828344820931561 0.00735004025834053) 3
(0.033577072374985 0.00581612583782254 0.00387090074233827) 3
(0.0303816708447596 0.0050859762400647 0.00447144039569015) 3
(0.0333859907294955 0.00367485138378173 0.00427775246892059) 3
(0.0301533071681288 0.000821843195132619 0.00348609255932443) 3
(0.0302168144589117 0.00288183963504483 0.00908450236806519) 3
(0.0312261892294586 0.00313714641461788 0.00778304979704783) 3
(0.0308886626677393 0.00727031959538554 0.00845100313642203) 3
(0.0303757020570761 0.00220345863040757 0.00262641132311968) 3
(0.0324161006971142 0.00250281640223411 0.00683383190756333) 3
(0.0308342852934434 0.00147911645794123 0.00208433309816902) 3
(0.0438414332699022 0.00953780707896259 0.00526462139612113) 4
(0.0458767383429491 0.00855210112702574 0.00604425045747382) 4
(0.0446196254247668 0.00963057900227772 0.00462973077420019) 4
(0.0451677377783828 0.00768040587268411 0.00543865450625669) 4
(0.0425710869925808 0.00766829128817458 0.00544846179931119) 4
(0.0418924486452415 0.00877150694953889 0.00263017810240447) 4
(0.0415421946954906 0.00946411400408989 0.00509304879534076) 4
(0.0425728828445381 0.00820830696195493 0.00400146519445915) 4
(0.0461161313695171 0.00671134639591386 0.00383663357251123) 4
(0.0436614897073795 0.00947687962101037 0.00261527680054899) 4
(0.0443132244989601 0.00868121182237999 0.00202494437361025) 4
(0.0441631068035987 0.00935294041244779 0.00299445883190399) 4
(0.0454025005962521 0.00986431269087868 0.00158294680997324) 4
(0.0436957882113203 0.00748567020828995 0.00287333231057646) 4
(0.0468464000887977 0.00756465395986313 0.00537850862159837) 4
(0.0462212838787152 0.00881236251172959 0.00166246495499225) 4
(0.0472190339554659 0.000655885790257766 0.0010387609036473) 4
(0.0448543004112772 0.000261583980129547 0.00465520854279662) 4
(0.0462789125442675 0.0021076369564846 0.00290644327606348) 4
(0.0454638910825298 0.0029228260600715 0.0048120698318189) 4
(0.0488118495715114 0.000392125481713546 0.00112803071517897) 4
(0.0484498681935357 1.72105585726179e-05 0.00497510460754709) 4
(0.0476827239023806 0.000163663856609535 0.006143521257319) 4
(0.0453822546512178 0.00065496309370614 0.00493243098094238) 4
(0.0443698482372969 9.97020180670205e-05 0.00494816556313427) 4
(0.042023138493684 0.00142782607020388 0.00781504099564552) 4
(0.0424219261112162 0.00111165963873667 0.00318307575209221) 4
(0.04068516116831 1.58544324644971e-05 0.00533884121752768) 4
(0.0460634411519399 0.00261385229259053 0.00699578843374033) 4
(0.0440094982374452 0.000104535985756744 0.00817212074008514) 4
(0.0414815318795267 0.00116661238782731 0.00435837441564848) 4
(0.0490599304595965 0.00591602594792429 0.00464849913002352) 4
(0.0498766080043973 0.00337802006025738 0.00126060711602689) 4
(0.0486432485712497 0.00825977128510646 0.00285857166037202) 4
(0.0494195292792947 0.0060195049421675 0.00105578601630834) 4
(0.047459431991152 0.00629291033459195 0.00458128887789544) 4
(0.0474029625380922 0.00569426129120314 0.00283929778381092) 4
(0.0497956377303735 0.00500195736464518 0.00476147706123351) 4
(0.0485737354040687 0.00673427209555152 0.00362660344824134) 4
(0.0492030631960931 0.00431305478720178 0.00715066635906927) 4
(0.0497758869921746 0.00379851078603489 0.00561607819697604) 4
(0.0481287273658208 0.00590585003546886 0.00668716787292391) 4
(0.0473239539688444 0.00431075446164066 0.00731967059215616) 4
(0.0499308463402647 0.00711702394450233 0.0072364177705313) 4
(0.0499051745810538 0.00132849425071885 0.00987270767917984) 4
(0.0488642198902512 0.00233245688162212 0.00255187346231685) 4
(0.0494079199914142 0.00517578522007886 0.00682620985486698) 4
(0.0468116588305906 0.00744722939025719 0.00127846029008412) 4
(0.0451938009520525 0.00852986749871086 0.000485298139235759) 4
(0.0474661426772741 0.00835039715835146 0.00107680134493714) 4
(0.0461306184995901 0.00675194229705447 0.00172095097363293) 4
(0.0447093769143295 0.00808001441446725 0.000280804376812878) 4
(0.0433803054039928 0.00924400235613344 1.30775503565417e-05) 4
(0.0452609051693711 0.00761083150450618 0.00228045624710186) 4
(0.0424540972249564 0.00612648175433568 0.000311806794376697) 4
(0.0497523125301594 0.00813870715558965 0.000134467292691784) 4
(0.0491609028198018 0.00267333662669914 0.000807512807708566) 4
(0.0470901781499818 0.00651596856133965 0.00208380176811902) 4
(0.0441761790574257 0.00407955963722674 0.00350257914394444) 4
(0.0462316759522955 0.00493826708129612 0.00103685739635543) 4
(0.0431070070159976 0.00183123888195583 0.00171147264071843) 4
(0.0494002996124619 0.00526762944117793 3.64013941338293e-05) 4
(0.0486053936673203 0.00533990339623672 0.00136437386424697) 4
(0.0481724084108659 0.00799486030788 0.00167091683362724) 4
(0.0465464192103307 0.00224640521011304 0.00870982931240535) 4
(0.0465846811148627 0.00620669838218811 0.0071184481648852) 4
(0.0485893317835507 0.000831444013139482 0.00938039121623447) 4
(0.0426609877546827 0.00152437263698639 0.0093406536021857) 4
(0.0479029461745961 0.00405769596370058 0.00861207915005357) 4
(0.0446436453073527 0.00403847704942899 0.00879820350140461) 4
(0.0438627438755113 0.00141967510919679 0.00902039381867541) 4
(0.0451632297864052 0.00282525541681617 0.00965435449050057) 4
(0.0430862898034144 0.00798922406959823 0.00853210228335166) 4
(0.0437072698793253 0.00426678047119102 0.00814488911256182) 4
(0.0418359251557837 0.00584089923744459 0.00961950312726804) 4
(0.0438608613222849 0.003899916131459 0.00880570195478979) 4
(0.0465662698568404 0.00788824624736121 0.00936916079342994) 4
(0.0423411888709679 0.00891842537240203 0.00940857593729751) 4
(0.045976831895538 0.00806491954674607 0.00834598596951141) 4
(0.0400115686893574 0.00880386291450067 0.000725466338436487) 4
(0.0433008661212508 0.00626166018277962 0.00348836764911452) 4
(0.0422148703532488 0.00419389211261349 0.0041909927289054) 4
(0.0406182762729397 0.00671060491730605 0.00483197495975018) 4