/*--------------------------------*- C++ -*----------------------------------*\
| =========                 |                                                 |
| \\      /  F ield         | OpenFOAM: The Open Source CFD Toolbox           |
|  \\    /   O peration     | Version:  v1706                                 |
|   \\  /    A nd           | Web:      www.OpenFOAM.com                      |
|    \\/     M anipulation  |                                                 |
\*---------------------------------------------------------------------------*/
FoamFile
{
    version     2.0;
    format      ascii;
    class       vectorField;
    location    "0/lagrangian/dsmc";
    object      U;
}
// * * * * * * * * * * * * * * * * * * * * * * * * * * * * * * * * * * * * * //


47648
(
(-639.078076185725 588.480949073822 -1024.04606679956)
(1658.04584629755 -207.537159215849 822.005192555952)
(396.271009342393 730.797563554653 503.489929810585)
(1633.12358071813 58.4153745451555 -110.349066887119)
(887.51000716751 117.574985529647 -613.884927016101)
(564.218523082226 1479.2049746872 -1260.64942987161)
(506.079052804608 107.036419944752 -121.971662807233)
(-444.694938042212 -395.793788582005 -574.550094924102)
(833.855679263044 145.810313499933 131.737189618848)
(293.350296395203 -1378.30559936096 -647.334012632096)
(-3.01891683124744 -662.26008245274 -1302.66440328531)
(579.172193793423 -432.837384079878 -436.035486157395)
(227.637609566273 41.1386661527091 436.450101942317)
(364.430252827692 -825.04564105368 278.115366079741)
(-707.31992541723 -442.5317047325 -129.494783017825)
(-836.824970356909 -273.405505216705 1067.84437131681)
(193.049197297764 503.730092957811 -248.887481577666)
(-46.0744771682345 -151.492655000905 44.8880010679268)
(-432.413816925926 -54.480325537826 -2032.01499075461)
(228.329456143337 610.87207197132 -1493.09814588019)
(-29.7718382749031 136.152140146536 112.880687449881)
(-757.106034431811 -526.345443355613 167.021070035464)
(790.978545475069 613.175528348492 -839.670800024312)
(-1503.38742219079 -949.448117213202 972.281165363736)
(-115.256097116569 248.423657178669 1343.2987789879)
(400.736036789295 422.340381127205 633.755984963769)
(421.272467856437 -453.287945307277 593.644352028915)
(192.237876116674 -1050.24819696952 348.323640894753)
(640.884856803418 117.817751873128 575.301358591383)
(1770.58992979764 1.22744742467719 -467.492657349893)
(-533.54915745132 180.985475670793 316.927640792159)
(-480.826378695714 -8.02071919394685 507.423445018959)
(-448.072568415856 291.975016059448 853.355055755001)
(-1527.35911839217 399.512233212551 -1251.02656278749)
(111.269101957907 -904.379328705645 171.911723328427)
(-720.702403578542 1076.95121941147 632.812843904531)
(502.937972473665 -1042.8162474553 1099.996734961)
(311.287572318958 -214.273581040452 -496.223693921341)
(-105.099208992224 1139.30795432533 -266.140117356635)
(-331.918148786476 -372.473734566204 37.2602409830391)
(-8.37917033307162 23.9107790480143 597.074098150033)
(273.88605722623 377.475279008146 -612.339795946088)
(-122.548622765751 -1004.21087002849 -508.464224771039)
(68.600112312306 -262.973667928554 -747.801757927207)
(617.712409642962 -523.161561388175 864.550689843855)
(-733.67034072552 417.470191759892 -1377.51166302074)
(1054.73328208527 674.857018664507 -939.268456455329)
(874.719378036427 -1220.25696196719 -213.49708604675)
(808.639438151805 -89.1413061526935 -77.3488058885826)
(578.775394248395 307.60827998875 -609.174764397887)
(1033.05899412944 -1311.33232616127 -343.403177594664)
(-257.174659693687 472.676291190049 875.507704210934)
(318.304703514002 1147.23647571901 -154.171599987615)
(1736.12481583743 459.383427458102 -1131.83402166512)
(562.796778335986 524.346827513609 1179.52173044722)
(80.7049872163885 459.780824431841 -1032.7476022749)
(868.17802435674 -558.427689381122 -496.352541891838)
(-434.977801473071 -32.6717189402724 -870.870448612206)
(-319.561941075905 402.532642653093 975.108626193153)
(366.583029204691 167.76174218638 -313.765090471815)
(8.61942057288259 868.999044815782 -874.836821622801)
(21.5923858282708 1052.82190813809 -151.481078900612)
(226.838120362851 1376.03454672769 648.856668023371)
(578.368748765585 1326.69186559019 -979.977736829748)
(-61.5127945927928 35.718319748749 18.5695395701615)
(856.83733106851 -186.046307771882 305.274702590381)
(-426.299598330664 446.803330973399 -1748.6410192401)
(127.030226564983 461.624970806518 -700.668483197958)
(1126.89100741686 -23.0993720864181 517.82854396064)
(875.211152756514 64.1270751368719 1220.30153354941)
(-942.804332909022 -164.329541679694 -596.54281521287)
(567.95971871328 -201.02187101948 -561.170451136105)
(-364.521770418857 -765.607376658834 -969.606955051784)
(383.416882096191 274.247775377675 -481.900439896972)
(1527.4525693063 1040.87122328243 1149.61608102604)
(1051.01818378519 -371.221906631304 -921.859139378853)
(348.231197674961 -573.10867658584 300.568963931762)
(1095.97749190196 955.103423687961 -398.010790890479)
(-122.552902624471 1194.42230384322 86.0089597892445)
(-1467.85104120479 -347.507391137231 -475.87720263975)
(-216.18355375415 -382.559534396212 -494.229009647013)
(763.552123819483 -426.044528059196 -731.638972116454)
(688.171170718287 823.588159890974 -512.976473369923)
(-705.040524521767 -297.210761634825 748.503196801555)
(-1414.90421872788 575.821044104427 -832.188574005766)
(-832.533368006867 -1262.10166083579 -176.670105440768)
(-1661.32381743566 522.941929537078 559.11812037645)
(-1210.58566716712 130.70569140459 -609.775318415573)
(1068.89738200709 -1744.47730582042 -883.681844045938)
(553.247791874187 746.731251510655 192.129775331241)
(1525.26962337949 -737.251789141133 -63.6506321001246)
(-1206.87596422228 -299.558410417244 -365.800062189133)
(664.613995360208 -38.1572501843347 677.258856257538)
(36.0176106805476 363.061924825904 20.4758008212234)
(438.423582931699 150.276947638838 642.909413187795)
(-418.053787693521 -481.542716036232 1348.55293803565)
(-283.102913996789 -416.752168973138 7.77118714057282)
(-1274.48050167445 288.54166890976 -349.679748899008)
(385.401449298595 -1071.51906837261 -563.57970042334)
(1054.07195042889 -23.3347494756344 1252.30852030139)
(-264.58532965031 335.832691853381 -808.43035922733)
(-563.341934530346 -671.745966101465 429.703211621474)
(-380.977170375875 176.469688132684 -1721.68699179461)
(1282.1668818773 1416.73483963904 -265.850410552224)
(-737.979958841611 554.757410101287 -638.974111213029)
(749.466126493961 -987.309392368652 -5.31521049931196)
(530.680647525047 625.272507116169 33.9747258977727)
(131.449308927165 240.211419222299 -1294.99131141471)
(20.1081789947418 474.578166157626 -820.429586286797)
(-825.964731738048 -606.457987881627 348.181059050715)
(-390.890598199305 -280.461350939214 17.947855958015)
(492.363580578374 904.759819655981 581.960089588796)
(427.974274569646 1123.31027588808 -1151.90029540968)
(1042.78794310142 -523.008920508369 278.367691682941)
(-1107.09698477865 276.096748773677 -943.179087952377)
(889.173325274758 -286.306909381505 -761.395458726504)
(924.747042066101 -689.985031128496 -13.2787879684945)
(1203.92270449338 339.067082435035 718.608674105579)
(-674.994134872695 -973.404434155702 367.487820821379)
(1766.04279577589 210.072683711347 741.724969808127)
(1946.61551186539 914.62038600193 -1208.65188130915)
(1310.12315264719 360.403142915879 792.449317067631)
(-149.669986652297 -398.789032851809 -211.148746212696)
(-715.731209971287 167.775441605169 1053.09619585873)
(-917.20030798866 964.274635546087 498.138286665191)
(-89.4525144786005 111.837824497242 200.893277821565)
(-739.652775443692 165.135960952556 731.982090873318)
(-853.400964323108 421.973996468425 588.042156090721)
(-922.115414019975 1094.31015605621 -391.758564621347)
(247.952100421152 110.435722635244 -1277.32617310948)
(156.170407831806 -177.326005895066 -413.545049388953)
(-419.298576341667 268.432715732441 -1448.99947930886)
(198.311238405051 -352.734285093113 97.721120605022)
(1380.64151990927 635.83651114441 -785.490132426927)
(1301.70871803651 -178.590740836435 -89.5461240704877)
(1.64349689335699 -455.327126887571 -738.785531283338)
(-519.452966254192 203.035040858134 -911.79812749289)
(738.889564865771 -58.5345345122253 -901.871143344396)
(-2018.09253505477 838.080179995144 322.06363312379)
(-1416.80992683111 -609.350201867627 -246.158311672047)
(-175.98680862143 132.576637569864 26.6648294323849)
(341.204218015733 -1143.12586741821 408.948639877907)
(-637.115432250873 -390.692231750548 1306.47965371409)
(-1741.6625477988 -121.81657710192 458.194216078296)
(-270.916409605976 -655.809715102422 107.383784641666)
(430.942468690593 -814.373256871659 -294.977485082303)
(1663.58438600762 1180.30092479196 -613.473457458912)
(-195.353818994795 1261.62080802727 284.617798902669)
(-242.193490719586 -297.658774339318 1040.64099530578)
(971.648823871854 64.8885894540503 -518.586795713274)
(-442.539899830831 552.839327526253 -299.353387957394)
(-1282.18095231205 -1067.07622112159 839.945686246219)
(289.377608403337 1004.77304646157 942.11235971568)
(69.5806514032107 165.767499611589 796.307225779618)
(276.764056167265 521.397537000081 -539.664081672128)
(462.977424239037 -292.073400734877 490.292717838546)
(-1213.40372182867 192.896638562036 359.845163019752)
(552.707332665637 -555.033671755402 50.8752510519529)
(63.3899783870093 -359.244971588549 1032.89096956907)
(996.546478280206 1189.38318025769 -994.849275151659)
(70.0205984957601 -363.355373268723 100.090331945456)
(62.5821387098942 270.307732212375 1856.55820643063)
(-119.486082917611 396.141019305256 -1661.31383481311)
(-1697.42820251493 -677.609651353761 -333.028150880073)
(659.596688736731 -533.4805153664 962.024591277535)
(-24.4225101139658 189.572353069051 -578.8458977413)
(1851.99448748662 834.754584276122 -953.77560849883)
(567.973535840034 -286.950841643732 -1916.22106515643)
(661.302155235556 -2025.85014592093 -120.091782385602)
(-183.016658607925 149.806635157172 -817.137878439901)
(-1589.24303121392 -856.23186706135 -274.974866501576)
(525.780097591367 994.223120446266 168.627929618817)
(-77.7000349508098 638.29119822287 962.961104763148)
(264.836054220284 -318.705264290921 -479.190229750951)
(-1170.46277029747 450.5800875393 908.46065204717)
(1091.55498647044 -195.940245041325 728.250829883049)
(335.499297485415 -752.218661016367 -1081.43276288123)
(-543.987021748871 1814.31982523902 415.898336799873)
(911.237862506135 -535.628190653521 281.613663616905)
(301.617537195589 -1448.54037765341 -157.605569996766)
(-764.962480151529 -601.468444428481 153.700932806951)
(907.179214286091 319.252008469484 -764.067100400107)
(247.367841593231 1153.7192813431 -148.498258114239)
(493.804048215712 102.77300736725 -369.412319411769)
(-132.107674437174 -568.176772053779 446.79428991092)
(567.354601739682 443.39818454004 1574.19256825892)
(-219.187941562484 583.969929679913 -586.145053564472)
(-174.264911976244 -509.39182714785 -172.38230968418)
(522.959513083582 -490.42056682018 1038.52712827946)
(352.802774974174 -1105.88825031844 1198.75792661269)
(-107.999962164826 296.613251462457 -749.817713707455)
(-884.66453256403 -507.606026057501 492.619734656071)
(-458.316920078041 113.30972437907 -1268.02089125064)
(-55.8179191035315 454.041601408602 -679.903818307932)
(-831.381427617019 448.369497417672 -45.418989239473)
(-378.09441506701 -757.086408164465 507.816949453147)
(-429.341087176806 -1789.12986285377 -1224.37617050357)
(941.517718689828 105.393630972471 -611.728160670238)
(-698.074824775948 443.091748000344 911.774443135679)
(-161.68568816674 347.648415338807 488.611685835033)
(-789.695596614038 -202.212292216283 -646.518361809478)
(-108.168260981052 -305.075912373967 -366.854358426185)
(317.317348467846 869.870192159947 715.133299979396)
(738.771353008101 236.456843384646 263.485953041727)
(-213.557925998802 170.340113096445 515.671899692045)
(538.217087219065 276.961358060592 -346.260319744835)
(367.461219632106 938.304406209769 540.024265762419)
(-1214.00363688839 1254.07531439254 -50.4465808713619)
(-1479.36386971752 -305.227717962045 -368.092952581525)
(481.536371846975 749.43903469364 170.414256266444)
(-996.360798095003 -708.073605536315 -295.524282660347)
(245.560254059509 -1078.41019193889 745.17975758602)
(1469.07237406726 587.109300403039 1156.50222426199)
(-391.976146738443 1461.56472065233 1531.0246919504)
(488.476256327355 931.550561297152 202.708743276499)
(-13.7623140688217 738.672724996065 -900.400083644557)
(288.637950732618 13.6459355010388 -1108.83611037201)
(-1850.78986469514 -414.701411255316 -1462.89548137441)
(-568.082729203509 -93.2410808874204 -267.958240466643)
(1404.76028252055 1635.53625573917 75.9908708497813)
(-551.430325903646 290.588996057246 -1256.07927963914)
(-79.5393735393598 -153.691469069889 -773.38827610595)
(-507.727375607085 -1113.34746962887 18.9462095833916)
(-292.811452567816 -281.854533490427 1044.1165690019)
(-511.635395039213 -1112.22890156193 75.3172022082834)
(-107.962489381099 938.394577034123 1090.46116010868)
(-445.547715344478 -404.561160190296 -1021.90164504103)
(1699.9183542612 91.1932420181819 -1047.79549102015)
(-772.283144236243 -306.049499918749 -38.6305394084071)
(74.72454785003 1290.76085036888 -552.743568768615)
(1712.7065483076 -626.734857089424 1380.67755078745)
(-725.299175973356 -296.605964044996 -194.211858214894)
(-131.973048930062 -160.316594983481 1390.31369591231)
(-6.02263893535026 762.908041491857 320.703138733053)
(670.731036497635 -1486.93520766745 115.366695254173)
(-1466.23848147856 -55.9269866099787 -183.21612789379)
(673.882454835357 -309.24027628135 1011.2469320531)
(-571.783978273907 894.339121088082 577.621513750608)
(-234.000915322979 494.314301867799 -252.339069281687)
(367.50996069618 -1130.72565170569 1791.9514483723)
(30.4544201049196 -1012.4404805499 -73.8250416177659)
(443.059784550631 39.3167337173136 -968.443169755408)
(139.232946915779 470.520726556123 795.174859956426)
(126.890440977741 -365.691052155336 -326.184391738532)
(-830.022528829953 107.120431048025 -181.769746668374)
(1499.47610836927 3189.0285142448 -461.100989185909)
(106.530987197083 -902.952462904212 996.22441010082)
(568.023111625908 1389.45552722292 -358.894480490672)
(-1279.22153325951 -823.599717825267 -690.613181793122)
(-1109.02459157149 -45.0703703816928 -670.580046739817)
(-495.110648497245 -1304.1309082945 687.992000177285)
(2194.98999014362 -1467.24695639853 817.375374506474)
(-1143.53009967517 27.1313733545644 615.725965806054)
(83.9104686321831 -385.921829444591 -360.427880196122)
(281.530250629135 -58.5943861160609 443.174949481665)
(666.788434143291 1194.4118539337 536.271901518664)
(-1189.24461358592 -197.657382012382 -64.250191829818)
(-240.077260349071 784.534076663967 -955.187373002812)
(447.909728681952 1721.35539454825 9.39096030425405)
(-562.625710745252 650.835857732301 -334.405572763357)
(-337.586042880733 526.460167328371 717.576164998586)
(-175.907556291387 -776.84060323247 -350.913174134927)
(72.7690768634188 140.507712756755 -517.580520505618)
(449.41064836528 584.827432369083 -91.3978831577306)
(-805.298593730315 -1226.64941477341 -957.244150610931)
(799.610704272395 -648.505864261457 1903.65982561255)
(-1155.25940608579 -592.166353581499 544.356857128001)
(-1475.6324586012 -44.0380802415051 -894.354648363814)
(819.915895509452 -1350.78327391026 -421.275926687807)
(-483.756403803146 585.977685013635 207.363841957856)
(391.10676404938 -705.17040163025 -833.566637437524)
(-667.438382148294 24.9337834659455 309.532361364458)
(630.392187014508 710.05893649178 -32.1589626575032)
(1115.47354732203 948.928754492071 1152.22500401565)
(-611.53562108386 -890.971096483054 639.482287775625)
(-632.100357202645 -182.125400409189 378.276339208867)
(683.466995095554 486.010292742077 577.640477141361)
(255.684193359104 377.394139810315 -24.6390999498185)
(-99.1896104095393 -199.529519867514 -159.346404981204)
(585.78748751834 72.4886230230687 -457.403771842735)
(-165.07985356319 1332.53583795628 43.2618419547744)
(262.364558549642 -1442.12177994287 -90.5698345899884)
(-770.017274882882 221.779683183795 -1806.08363887804)
(-1124.12003850406 -331.545588287929 194.922167414151)
(1428.87569625651 980.676049410829 -264.744054893662)
(-623.390030081231 1077.80270885781 -353.138401304778)
(843.669811720829 176.010812862974 -348.983155826808)
(1041.25855816669 645.419575371479 1374.79408811413)
(-35.5708906978765 106.376868374453 -91.7746598351043)
(-143.727827008503 -690.093571232019 -432.031948465695)
(-735.032641723956 -856.872041604684 215.692170355388)
(1699.00177998269 143.392765264867 -219.895700140534)
(-1355.70346474685 -12.4585164173713 1758.11427083239)
(-275.218801961519 115.417426218135 245.623725188486)
(-994.121438734836 113.98682683732 9.703589642615)
(-1685.34804221978 -301.744341079129 1676.52640216283)
(-254.143147746297 808.339961436963 38.7989162627493)
(-270.305618615063 161.407654431588 2136.97966889886)
(324.23673350016 -61.4197276851031 -1412.93850738004)
(-635.546077212389 -446.657454142182 -868.833678228985)
(232.973399115458 -713.565161648917 429.741848025093)
(518.474254040205 -480.908066036452 -1015.80139485156)
(385.773662612706 604.088043730765 218.020764223465)
(-933.685187132608 -745.672416126001 -240.694939354325)
(-849.674868542041 -1.40386228785679 -589.566761823339)
(70.222618692726 -1547.6123988933 553.874467950202)
(572.898533092326 31.2493296134946 -579.832342637057)
(-339.947526372593 673.182370440089 963.03306511521)
(-102.020150512315 -216.371211726634 198.364540642912)
(-116.611791010294 -350.915655640327 543.958316858352)
(601.577019670947 67.9925775021922 52.4752067590787)
(-1282.83300477254 218.260122079501 100.705516633237)
(-98.2732481481126 2465.04837042144 -1013.84335905291)
(-911.155135439376 -299.154704315858 367.282989289261)
(1583.52517578262 -680.374706158122 329.621771373325)
(-382.163116472391 488.748312098843 -2037.25953104189)
(-1239.48568690651 -1204.99314990318 666.778065421319)
(470.13831768877 -431.791973532948 -483.015094009374)
(77.9358336819868 165.617524685245 109.125076288858)
(-1271.88701738313 -161.23850091077 615.603025785332)
(1567.21382456617 921.400340007617 190.5100688491)
(-45.9946726544664 -230.744063473108 -432.22120777402)
(-585.959439412804 241.302478514014 -780.171293472616)
(-305.363947968455 677.347282792874 840.314121295183)
(-1408.80765463175 -1170.63602257472 -998.950208185656)
(54.8016645658805 392.000068445294 -1656.91723467256)
(-355.04667836597 111.39927825108 -627.560783055824)
(720.12155386424 312.848500757851 -540.629389822321)
(-1217.81266282067 -526.381455491146 476.132302468069)
(171.764833402713 411.033134752531 -118.722500927746)
(793.300876389395 -77.1689216205075 809.24619870037)
(-721.530164079699 11.4926193712949 1146.83998044427)
(-923.62765348999 6.78017735278668 -240.040720754168)
(833.59872895307 -571.946878354479 583.793003824724)
(-1259.62802878208 -563.558564561358 -537.165727914264)
(14.5729770375256 -23.209016064431 -599.188373970178)
(-745.363247390768 -1148.11167616753 288.944752727194)
(-200.420612184155 -590.068725198073 -413.456115400884)
(-200.693808877091 447.738622320074 -3.24608675238189)
(20.044782402494 836.92422091756 385.728900625081)
(-2108.96626646424 -720.684222071647 -305.60282717432)
(378.016055697741 1179.19324779785 -124.591312992538)
(-725.013618724078 918.64290171226 979.425071881407)
(-46.4981785358787 -502.40746808216 -744.4041716506)
(98.8153905030642 -229.374036297627 -1194.63420105157)
(2291.91182940383 -164.53814403023 -1229.84267369492)
(-714.617803317349 817.706300863361 -391.932766573488)
(469.483275951016 45.5719128997051 283.915933879343)
(-1520.64317795176 1877.14023273397 933.016661511553)
(688.904776383576 1403.6845760657 -369.256979945827)
(-606.680047908621 -382.457477927823 405.164543111755)
(36.4418254246785 904.00824937988 -565.469674087341)
(442.188563878684 259.001860716735 -611.419572012855)
(-1362.65801571116 690.537967971706 920.967481486309)
(282.12634493669 1239.32670435583 -52.2058803334609)
(-940.654623974724 -59.6620752778775 -1206.68637114363)
(298.235108033613 -1648.68817352902 -581.762895676909)
(-357.843481332599 -177.441592128281 208.321334438156)
(-362.749764644648 623.458868458469 64.2389869410214)
(-625.417777161003 531.482206442709 76.4850371630877)
(-143.421269317382 -509.25613104649 600.00259149699)
(-14.7405654935729 -477.867739746528 1035.07500023863)
(712.762261309451 -222.534158453612 -416.433801673133)
(-452.884146491566 -1061.28209355114 -1047.76458848599)
(-462.508548188673 -238.994245010204 -413.279675024181)
(176.587441722932 -968.805843176031 -320.415310010575)
(-227.247282269425 805.740008893896 -157.312168661412)
(-1747.91351046878 432.1066257178 438.168324840727)
(-785.480872826275 772.979846211289 -1697.21705188561)
(512.332244563441 324.080102464946 1182.29232955073)
(679.746311872407 -464.153552080457 728.428698962064)
(-8.04440968231708 -437.399135309395 1475.53403793127)
(673.2749825739 -122.569961792438 -1496.6273761232)
(23.179697526917 -479.298809459912 -320.574041768224)
(682.434742808373 -416.584081514396 -349.692176790109)
(448.238288939464 289.766969950372 -261.832334309723)
(15.7971355293828 -320.423302985157 1174.52477189256)
(-129.083670861811 101.22541477918 -228.457171738131)
(-626.875153168899 -761.308551971012 371.367237938872)
(1209.84624866474 -234.224397541196 -241.974927553075)
(703.886481077281 265.110251938277 1588.88837675801)
(286.146982019322 -1.15178998758631 1734.48678684389)
(844.298351468942 -1292.74456276398 -258.163768414908)
(792.417369687738 -616.026448248996 1522.18060109001)
(-41.3659688235126 -680.511119792198 -447.825076897894)
(-896.308332978561 883.912303960356 -1864.3563957302)
(-122.895023697629 891.521752613381 588.548018132379)
(191.54289095971 -4.70795840308695 -509.140055024621)
(-608.585913595521 -562.892445927791 -280.204842192903)
(690.247876511922 1363.52811593967 776.409948353339)
(-184.563271069409 578.38018388532 854.665572472933)
(867.258218138036 -381.805300645715 -176.397923142908)
(-719.648659194981 -382.96006542411 -811.148136188109)
(670.080014953151 94.1683498424166 457.441320100904)
(48.3242278367388 475.792804129579 -654.327352436806)
(503.664035174364 -503.815202541589 387.069577152936)
(738.940147703097 3.96968412098969 -112.790170273683)
(616.760203883303 908.592676043412 1255.2720615073)
(390.141761987132 -940.222588832801 261.679918077545)
(-1347.28779021637 -159.4849195977 1403.95419385019)
(-789.847292241302 795.867225729778 340.407952222689)
(-1179.68142504771 -649.557863669913 214.216231387377)
(263.147089924521 636.856215353646 741.230434667126)
(-263.54100761467 1599.96567291277 -526.986755802046)
(-1014.34263201134 -212.096481514429 -425.45690056835)
(758.345433540653 217.264496523946 -309.473740088812)
(347.484542237652 -635.983200669566 -1093.70130176088)
(-743.056649287921 -359.528725443649 763.778929466909)
(897.963671252966 779.059024590495 -124.235131646068)
(915.747568904201 378.855375637489 258.196815248329)
(72.1619795860209 960.753032299007 310.033494024293)
(-247.517791072635 -148.693219538937 -647.766675026596)
(998.039156715115 334.064396878848 55.5761216291383)
(795.046066181099 -401.012409839931 -140.59914226656)
(-154.535548999434 39.4464817955726 164.935352851027)
(-211.259903698726 303.44023822305 -410.154383012409)
(-680.194683415139 93.6898014916137 -998.966193079982)
(1094.99306497176 620.645143851366 129.166005900177)
(13.8946749761456 -434.197529448496 1255.04423141764)
(-47.4659083702613 -267.010013879411 -699.013322090233)
(991.792647246937 -154.173353249333 604.031027120172)
(556.361082976031 -1268.27352450862 131.452126693319)
(139.598658581028 -133.089818022344 -963.036843538401)
(777.209622289954 561.214435340891 -1.93657813195848)
(700.470101542334 259.121342163446 -302.873125706143)
(130.851293308228 495.271035066613 65.4588043897544)
(-356.935467520302 -221.044819016603 -183.592989184069)
(931.116271992054 352.815891251629 330.592618103403)
(-335.439392537362 380.408317091342 1055.62667227487)
(697.820459842274 763.336876797893 -597.461238875294)
(1667.14780132027 -1411.94210752306 -716.094378325712)
(-904.451821936846 342.718705887575 1864.16335447198)
(-969.144068106974 -582.49665547335 -152.610078215944)
(-1134.96311318186 -849.71903762879 103.436386810356)
(-24.8042137884209 953.024551780548 -734.478145108667)
(-227.204719149567 110.396052707955 -312.299927067603)
(-826.900455396212 -38.932143556857 493.494070889646)
(817.243127996811 303.894108761312 126.202792286868)
(47.9132302477375 1429.93345111524 211.272892198493)
(-1240.66354739742 1003.59590395323 -57.7873870513036)
(380.933179727189 -1692.35484746496 157.062056794914)
(1329.72305233564 -166.231927552753 -888.578195964208)
(-432.668881652397 288.626919090486 -457.137249847391)
(349.678084278489 197.763708460026 -1356.80225005812)
(-1128.9582304594 -243.845487604839 -1208.8527714652)
(336.840969967806 -1629.32036911901 -100.357371875471)
(199.289664476798 72.5662305804558 1219.68810386157)
(-44.3088929969375 2413.58384253679 -617.382819233779)
(643.538518352231 -778.962944551247 -1124.51340498607)
(-198.525974203703 -1063.12625432401 -90.4610791966448)
(-296.145505878594 459.704713621488 672.306463049389)
(-36.1962995815485 997.358465118584 -462.229322056469)
(-1528.43512041271 -555.706801345484 -344.986153385285)
(448.904356062041 46.8245317353255 1249.14460405962)
(-172.434826552487 -524.135458035071 1578.0410874631)
(-263.303404713884 -1097.54013099338 166.229368858051)
(-894.606450260319 1034.08680601965 -405.736034805454)
(-727.207267423461 -895.876105622618 130.434584447246)
(669.632519077729 -25.917649766723 -1288.23154174892)
(-264.421028038918 -109.949155622487 -266.78220425396)
(-90.7077827119241 278.892157875691 594.965893856108)
(803.459291932688 156.579526808484 1063.8365954938)
(17.8214318607077 34.5822676232487 696.880130622954)
(25.832782659984 633.222824089819 121.35780336206)
(1041.65853243818 -399.081369805868 544.386298908486)
(-1082.74480196854 -106.057655765401 -631.921241048888)
(-691.823604124752 704.899945719452 195.310723444547)
(258.089792702654 629.986785038874 -185.161575862066)
(256.874605626551 -508.594355918878 550.698248859467)
(700.152254903045 -655.177661351772 245.334516219806)
(348.856442866474 581.340912538892 -211.364553481651)
(749.965005932024 437.678252518902 804.684713059385)
(363.551454081027 -567.298199760879 -19.619417719554)
(-12.3574597542525 578.146744425311 -17.4946602316827)
(-1455.52602779607 -908.498784665216 135.919225688118)
(-326.898579378583 -554.409870616881 -460.42186952547)
(249.441840655636 -218.615144596007 -361.38767116968)
(128.446185392529 1078.60535742363 -283.993579696953)
(-435.443850463634 -410.792031605225 319.44414097813)
(546.514506481788 -89.040745359334 -280.9705848019)
(861.589754974569 -640.469930983561 -198.854254358942)
(-1109.79147554321 -292.561580837608 894.305990932622)
(646.663677335551 173.156055498358 -1524.28140124422)
(-40.9085769864668 -800.118361270383 168.388151697242)
(9.81898857946222 1439.27897155703 -896.100540380421)
(1473.58916440958 277.150144374902 352.666993908338)
(-924.05641860975 370.02591970408 2081.56422168367)
(-289.739568461496 120.202317650613 724.726123624711)
(915.808216443034 -21.7224446834135 79.271465293932)
(1371.1845404698 610.476338428389 1287.00452722806)
(1122.5114331645 483.22583462553 -888.548727914676)
(-80.8137884602714 448.455482022134 650.038309452707)
(-646.588065970965 -511.451102089324 264.716944781374)
(-2009.75099502755 246.483788136386 228.990083121039)
(-306.044067758449 1119.47013411006 539.404682636781)
(-1504.5062652536 495.072759029095 759.051070306432)
(1724.17324020919 -159.975174008265 -1883.66198906989)
(-502.805748967245 1155.31402983056 913.106046259916)
(-412.070050833004 -569.196372709442 92.7894032232544)
(-719.530186242762 -314.487625436126 -872.632521482739)
(-643.983403903842 -892.934834400027 -1239.09527553176)
(447.114791369607 -351.231065590984 51.4523187233907)
(-1071.9104802437 -777.460175211056 -1090.07025523629)
(1353.50580225999 1996.0547646677 -1819.33740648057)
(-941.612921352809 -1379.23034321138 1067.69036181764)
(1041.54217660906 147.139417715699 151.209748205427)
(-1068.80585318733 -702.141388900363 -1427.54826917718)
(726.361749366533 -253.278562347552 1424.47461602112)
(-0.933512694645045 965.016522251173 -750.754097701361)
(974.549411149715 481.81523590289 1161.26322284196)
(843.670212754468 -1235.65997467728 -1270.92552463438)
(401.523595366903 359.687669680479 -563.241773585206)
(608.537618223052 -1008.86584546034 -867.854077254714)
(94.8760371338957 1207.87416897229 -728.649494318931)
(-397.962453236281 212.528413047445 -1806.6903784988)
(1220.43159823298 192.726362264883 -540.306617820978)
(-159.188714220205 980.555971328079 -1025.13115658128)
(615.617587336177 50.1542432261876 -73.2354743333607)
(-232.382236679835 1215.59770717297 235.316153911036)
(-362.879826811404 401.089953890428 -219.106635663098)
(483.055787091118 573.609624696046 195.54488424576)
(-793.045418378663 -1455.2377151584 156.265183903849)
(286.062443681284 1347.76667383768 238.791144605831)
(-346.821385755849 -2.60591327484972 -608.475278965912)
(-1144.2549839852 164.202321423116 227.194736728954)
(-647.962122141108 249.167173230259 242.83748338137)
(-252.330847566856 -655.691688899345 219.409623496619)
(941.751484670519 -42.9607358020386 2086.62732052064)
(64.2561041572036 -63.6134777258899 -512.985634940383)
(-34.2151747433544 -80.2774945460614 94.3741693042064)
(-393.557810918926 70.8736781724654 -421.7092769061)
(-888.737459808934 129.32395293508 384.1536665564)
(1241.44502491782 928.035392838436 228.362766003438)
(558.021967201273 252.321932231532 170.126501515736)
(1057.2465304337 25.7494154163822 0.922103348829569)
(-612.511458458741 1598.83812164026 404.29488087153)
(-918.422144413351 -754.616082005654 -37.1095395753256)
(-239.279050743745 1027.94344625762 775.661081564288)
(-588.367923437622 -515.074085829773 493.256392945831)