/*--------------------------------*- C++ -*----------------------------------*\
| =========                 |                                                 |
| \\      /  F ield         | OpenFOAM: The Open Source CFD Toolbox           |
|  \\    /   O peration     | Version:  1.7.1                                 |
|   \\  /    A nd           | Web:      www.OpenFOAM.com                      |
|    \\/     M anipulation  |                                                 |
\*---------------------------------------------------------------------------*/
FoamFile
{
    version     2.0;
    format      ascii;
    class       dictionary;
    location    "constant";
    object      dsmcProperties;
}
// * * * * * * * * * * * * * * * * * * * * * * * * * * * * * * * * * * * * * //


// General Properties
// ~~~~~~~~~~~~~~~~~~

nEquivalentParticles            1.8e11;


// Effective diffusivity
// ~~~~~~~~~~~~~~~~~~

porousMeasurement instantaneous;

tracerProperties
{
    inflowPatchNames           (inlet outlet);
    outflowPatchNames       ((outlet)(inlet));
    trackingProbability              1;
    dimensionality                   1;
}


// Binary Collision Model
// ~~~~~~~~~~~~~~~~~~~~~~

BinaryCollisionModel            VariableHardSphere;


// Collision Partner Selection Model
// ~~~~~~~~~~~~~~~~~~~~~~

collisionPartnerSelectionModel   		 noTimeCounter;


// Molecular species
// ~~~~~~~~~~~~~~~~~

typeIdList                      (Ar1 Ar2);

moleculeProperties
{
  	Ar1
    {
        mass                                  66.3e-27;
        diameter                              4.17e-10;
        diameterVSS                           4.11e-10;    
        omega                                     0.81;
        alpha                                      1.4;
    }
    
    Ar2
    {
        mass                                  66.3e-27;
        diameter                              4.17e-10;
        diameterVSS                           4.11e-10;    
        omega                                     0.81;
        alpha                                      1.4;
    }
}


// ************************************************************************* //
