/*--------------------------------*- C++ -*----------------------------------*\
| =========                 |                                                 |
| \\      /  F ield         | OpenFOAM: The Open Source CFD Toolbox           |
|  \\    /   O peration     | Version:  v1706                                 |
|   \\  /    A nd           | Web:      www.OpenFOAM.org                      |
|    \\/     M anipulation  |                                                 |
\*---------------------------------------------------------------------------*/
FoamFile
{
    version     2.0;
    format      ascii;
    class       dictionary;
    location    "constant";
    object      hTCReactionsJ92_fwd; // named after Jachimowski (1992)
}
// * * * * * * * * * * * * * * * * * * * * * * * * * * * * * * * * * * * * * //

// C. J. Jachimowski
// An Analysis of Combustion Studies in Shock Expansion
// Tunnels and Reflected Shock Tunnels
// NASA TP-3224
// 1992
    
species
(
    N2
    O2
    NO
    H2
    OH
    H2O
    HO2
    NO2
    H2O2
    HNO
    N
    O
    H
);

// * * * * * * * * * * * * * * * * * * * * * * * * * * * * * * * * * * * * * //
 
// Units
// A: m^3 kmol^-1 s^-1
// Ta: K
  
// FORWARD REACTIONS ONLY
  
reactions
{
    // Reaction no 1
    hydrogenOxygenReaction
    {
        type     irreversibleArrheniusReaction;
        reaction "H2 + O2 = HO2 + H";
        A        7.0e10;
        beta     0;
        Ta       28583;
    }
    
    // Reaction no 2
    hydrogenAtomOxygenReaction
    {
        type     irreversibleArrheniusReaction;
        reaction "H + O2 = OH + O";
        A        2.2e11;
        beta     0;
        Ta       8454;
    }
    
    // Reaction no 3
    oxygenAtomHydrogenReaction
    {
        type     irreversibleArrheniusReaction;
        reaction "O + H2 = OH + H";
        A        5.06e1;
        beta     2.67;
        Ta       3165;
    }
    
    // Reaction no 4
    hydroxydeHydrogenReaction
    {
        type     irreversibleArrheniusReaction;
        reaction "OH + H2 = H2O + H";
        A        2.16e5;
        beta     1.51;
        Ta       1726;
    }
    
    // Reaction no 5
    hydroxydeReaction
    {
        type     irreversibleArrheniusReaction;
        reaction "OH + OH = H2O + O";
        A        1.5e6;
        beta     1.14;
        Ta       0.0;
    }
    
    // Reaction no 6
    hydrogenAtomHydroxydeTBReaction
    {
        type     irreversiblethirdBodyArrheniusReaction;
        reaction "H + OH + M = H2O + M";
        A        8.62e18;
        beta     -2.0;
        Ta       0.0;
        defaultEfficiency 1.0;
        coeffs
        (
            ("H2O" 16.0)
            ("H2"  2.5)
            ("HO2" 4.0)
            ("N2" 1.0)
            ("O2" 1.0)
            ("NO" 1.0)
            ("OH" 1.0)
            ("NO2" 1.0)
            ("H2O2" 1.0)
            ("HNO" 1.0)
            ("N" 1.0)
            ("O" 1.0)
            ("H" 1.0)
        );
    }
    
    // Reaction no 7
    hydrogenAtomTBReaction
    {
        type     irreversiblethirdBodyArrheniusReaction;
        reaction "H + H + M = H2 + M";
        A        7.30e14;
        beta     -1.0;
        Ta       0.0;
        defaultEfficiency 1.0;
        coeffs
        (
            ("H2O" 16.0)
            ("H2"  2.5)
            ("HO2" 4.0)
            ("N2" 1.0)
            ("O2" 1.0)
            ("NO" 1.0)
            ("OH" 1.0)
            ("NO2" 1.0)
            ("H2O2" 1.0)
            ("HNO" 1.0)
            ("N" 1.0)
            ("O" 1.0)
            ("H" 1.0)
        );
    }
    
    // Reaction no 8
    hydrogenAtomOxygenAtomTBReaction
    {
        type     irreversiblethirdBodyArrheniusReaction;
        reaction "H + O + M = OH + M";
        A        2.6e13;
        beta     -0.6;
        Ta       0.0;
        defaultEfficiency 1.0;
        coeffs
        (
            ("H2O" 16.0)
            ("H2"  2.5)
            ("HO2" 4.0)
            ("N2" 1.0)
            ("O2" 1.0)
            ("NO" 1.0)
            ("OH" 1.0)
            ("NO2" 1.0)
            ("H2O2" 1.0)
            ("HNO" 1.0)
            ("N" 1.0)
            ("O" 1.0)
            ("H" 1.0)
        );
    }
    
    // Reaction no 9
    oxygenAtomTBReaction
    {
        type     irreversiblethirdBodyArrheniusReaction;
        reaction "O + O + M = O2 + M";
        A        1.1e14;
        beta     -1.0;
        Ta       0.0;
        defaultEfficiency 1.0;
        coeffs
        (
            ("H2O" 16.0)
            ("H2"  2.5)
            ("HO2" 4.0)
            ("N2" 1.0)
            ("O2" 1.0)
            ("NO" 1.0)
            ("OH" 1.0)
            ("NO2" 1.0)
            ("H2O2" 1.0)
            ("HNO" 1.0)
            ("N" 1.0)
            ("O" 1.0)
            ("H" 1.0)
        );
    }
    
    // Reaction no 10
    hydrogenAtomOxygenTBReaction
    {
        type     irreversiblethirdBodyArrheniusReaction;
        reaction "H + O2 + M = HO2 + M";
        A        2.3e15;
        beta     -1.0;
        Ta       0.0;
        defaultEfficiency 1.0;
        coeffs
        (
            ("H2O" 16.0)
            ("H2"  2.5)
            ("HO2" 4.0)
            ("N2" 1.0)
            ("O2" 1.0)
            ("NO" 1.0)
            ("OH" 1.0)
            ("NO2" 1.0)
            ("H2O2" 1.0)
            ("HNO" 1.0)
            ("N" 1.0)
            ("O" 1.0)
            ("H" 1.0)
        );
    }
    
    // Reaction no 11
    hydroperoxyleHydrogenAtomReaction
    {
        type     irreversibleArrheniusReaction;
        reaction "HO2 + H = OH + OH";
        A        1.5e11;
        beta     0;
        Ta       503;
    }
    
    // Reaction no 12
    hydroperoxyleOxygenAtomReaction
    {
        type     irreversibleArrheniusReaction;
        reaction "HO2 + O = O2 + OH";
        A        2.0e10;
        beta     0;
        Ta       0.0;
    }
    
    // Reaction no 13
    hydroperoxyleHydroxydeReaction
    {
        type     irreversibleArrheniusReaction;
        reaction "HO2 + OH = H2O + O2";
        A        2.0e10;
        beta     0;
        Ta       0.0;
    }
    
    // Reaction no 14
    hydroperoxyleReaction
    {
        type     irreversibleArrheniusReaction;
        reaction "HO2 + HO2 = H2O2 + O2";
        A        2.0e9;
        beta     0;
        Ta       0.0;
    }
    
    // Reaction no 15
    hydrogenAtomHydrogenperoxydeReaction
    {
        type     irreversibleArrheniusReaction;
        reaction "H + H2O2 = H2 + HO2";
        A        1.7e9;
        beta     0;
        Ta       1902;
    }
    
    // Reaction no 16
    hydrogenAtomHydrogenperoxydeBisReaction
    {
        type     irreversibleArrheniusReaction;
        reaction "H + H2O2 = OH + H2O";
        A        1.0e10;
        beta     0;
        Ta       1801;
    }
    
    // Reaction no 17
    oxygenAtomHydrogenperoxydeReaction
    {
        type     irreversibleArrheniusReaction;
        reaction "O + H2O2 = OH + HO2";
        A        2.8e10;
        beta     0;
        Ta       3220.6;
    }
    
    // Reaction no 18
    hydroxyleHydrogenperoxydeReaction
    {
        type     irreversibleArrheniusReaction;
        reaction "OH + H2O2 = H2O + HO2";
        A        7.0e9;
        beta     0;
        Ta       722;
    }
    
    // Reaction no 19
    hydroxyleTBReaction
    {
        type     irreversiblethirdBodyArrheniusReaction;
        reaction "OH + OH + M = H2O2 + M";
        A        1.6e19;
        beta     -2.0;
        Ta       0;
        defaultEfficiency 1.0;
        coeffs
        (
            ("H2O" 16.0)
            ("H2"  2.5)
            ("HO2" 4.0)
            ("N2" 1.0)
            ("O2" 1.0)
            ("NO" 1.0)
            ("OH" 1.0)
            ("NO2" 1.0)
            ("H2O2" 1.0)
            ("HNO" 1.0)
            ("N" 1.0)
            ("O" 1.0)
            ("H" 1.0)
        );
    }
    
    // Reaction no 20
    nitrogenAtomTBReaction
    {
        type     irreversiblethirdBodyArrheniusReaction;
        reaction "N + N + M = N2 + M";
        A        2.8e14;
        beta     -0.8;
        Ta       0;
        defaultEfficiency 1.0;
        coeffs
        (
            ("H2O" 16.0)
            ("H2"  2.5)
            ("HO2" 4.0)
            ("N2" 1.0)
            ("O2" 1.0)
            ("NO" 1.0)
            ("OH" 1.0)
            ("NO2" 1.0)
            ("H2O2" 1.0)
            ("HNO" 1.0)
            ("N" 1.0)
            ("O" 1.0)
            ("H" 1.0)
        );
    }
    
    // Reaction no 21
    nitrogenAtomOxygenReaction
    {
        type     irreversibleArrheniusReaction;
        reaction "N + O2 = NO + O";
        A        6.4e6;
        beta     1.0;
        Ta       3170;
    }
    
    // Reaction no 22
    nitrogenAtomNitricoxideReaction
    {
        type     irreversibleArrheniusReaction;
        reaction "N + NO = N2 + O";
        A        1.6e10;
        beta     0;
        Ta       0.0;
    }
    
    // Reaction no 23
    nitrogenAtomHydroxyleReaction
    {
        type     irreversibleArrheniusReaction;
        reaction "N + OH = NO + H";
        A        6.3e8;
        beta     0.5;
        Ta       0.0;
    }
    
    // Reaction no 24
    hydrogenAtomNitricoxideTBReaction
    {
        type     irreversiblethirdBodyArrheniusReaction;
        reaction "H + NO + M = HNO + M";
        A        5.4e12;
        beta     0;
        Ta       -302;
        defaultEfficiency 1.0;
        coeffs
        (
            ("H2O" 16.0)
            ("H2"  2.5)
            ("HO2" 4.0)
            ("N2" 1.0)
            ("O2" 1.0)
            ("NO" 1.0)
            ("OH" 1.0)
            ("NO2" 1.0)
            ("H2O2" 1.0)
            ("HNO" 1.0)
            ("N" 1.0)
            ("O" 1.0)
            ("H" 1.0)
        );
    }
    
    // Reaction no 25
    hydrogenAtomNitroxyleReaction
    {
        type     irreversibleArrheniusReaction;
        reaction "H + HNO = NO + H2";
        A        4.8e9;
        beta     0;
        Ta       0.0;
    }
    
    // Reaction no 26
    oxygenAtomNitroxyleReaction
    {
        type     irreversibleArrheniusReaction;
        reaction "O + HNO = NO + OH";
        A        5.0e8;
        beta     0.5;
        Ta       0.0;
    }
    
    // Reaction no 27
    hydroxyleNitroxyleReaction
    {
        type     irreversibleArrheniusReaction;
        reaction "OH + HNO = NO + H2O";
        A        3.6e10;
        beta     0;
        Ta       0.0;
    }
    
    // Reaction no 28
    hydroperoxyleNitroxyleReaction
    {
        type     irreversibleArrheniusReaction;
        reaction "HO2 + HNO = NO + H2O2";
        A        2.0e9;
        beta     0;
        Ta       0.0;
    }
    
    // Reaction no 29
    hydroperoxyleNitricoxideReaction
    {
        type     irreversibleArrheniusReaction;
        reaction "HO2 + NO = NO2 + OH";
        A        3.4e9;
        beta     0;
        Ta       -131;
    }
    
    // Reaction no 30
    hydroperoxyleNitricoxideBisReaction
    {
        type     irreversibleArrheniusReaction;
        reaction "HO2 + NO = HNO + O2";
        A        2.0e8;
        beta     0;
        Ta       503.2;
    }
    
    // Reaction no 31
    hydrogenAtomNitrogendioxideReaction
    {
        type     irreversibleArrheniusReaction;
        reaction "H + NO2 = NO + OH";
        A        3.5e11;
        beta     0;
        Ta       755;
    }
    
    // Reaction no 32
    oxygenAtomNitrogendioxideReaction
    {
        type     irreversibleArrheniusReaction;
        reaction "O + NO2 = NO + O2";
        A        1.0e10;
        beta     0;
        Ta       302;
    }
    
    // Reaction no 33
    nitrogendioxideTBReaction
    {
        type     irreversiblethirdBodyArrheniusReaction;
        reaction "M + NO2 = NO + O + M";
        A        1.16e13;
        beta     0;
        Ta       33212.4;
        defaultEfficiency 1.0;
        coeffs
        (
            ("H2O" 16.0)
            ("H2"  2.5)
            ("HO2" 4.0)
            ("N2" 1.0)
            ("O2" 1.0)
            ("NO" 1.0)
            ("OH" 1.0)
            ("NO2" 1.0)
            ("H2O2" 1.0)
            ("HNO" 1.0)
            ("N" 1.0)
            ("O" 1.0)
            ("H" 1.0)
        );
    }
}
