/*--------------------------------*- C++ -*----------------------------------*\
| =========                 |                                                 |
| \\      /  F ield         | OpenFOAM: The Open Source CFD Toolbox           |
|  \\    /   O peration     | Version:  1.7.1                                 |
|   \\  /    A nd           | Web:      www.OpenFOAM.com                      |
|    \\/     M anipulation  |                                                 |
\*---------------------------------------------------------------------------*/
FoamFile
{
    version     2.0;
    format      ascii;
    class       dictionary;
    location    "system";
    object      dsmcInitialiseDict;
}
// * * * * * * * * * * * * * * * * * * * * * * * * * * * * * * * * * * * * * //
configurations
(
    configuration
    {
        type    dsmcMeshFill;

		    numberDensities
		    {
			       Ar            1.4e20;
		    };

		    translationalTemperature     273.0;
		    rotationalTemperature        0.0; 
		    vibrationalTemperature       0.0;
		    electronicTemperature        0.0;

		    velocity        (100 0 0);
    }
);

// ************************************************************************* //
