/*--------------------------------*- C++ -*----------------------------------*\
| =========                 |                                                 |
| \\      /  F ield         | OpenFOAM: The Open Source CFD Toolbox           |
|  \\    /   O peration     | Version:  2.1.x                                 |
|   \\  /    A nd           | Web:      www.OpenFOAM.org                      |
|    \\/     M anipulation  |                                                 |
\*---------------------------------------------------------------------------*/
FoamFile
{
    version     2.0;
    format      ascii;
    class       dictionary;
    location    "system";
    object      pdInitialiseDict;
}
// * * * * * * * * * * * * * * * * * * * * * * * * * * * * * * * * * * * * * //

configurations
(
	
	/*
	
	configuration
	{
		type 			pdByField;

		typeIds 		(O+);

		velocityFields 		(U_O+);
		densityFields 		(rhoN_O+);

		translationalTemperature 	1000;
		rotationalTemperature		0;
		vibrationalTemperature		0;

		velocity        (0 0 0);
	}
	*/
	configuration
	{
		type 			pdMeshFill;

		numberDensities
		{
		    H                     1e12;
		    e 			  1e12;
		};

		translationalTemperature 	1000;
		rotationalTemperature		0;
		vibrationalTemperature		0;

		velocity        (0 0 0);
	}
);

// ************************************************************************* //
