/*--------------------------------*- C++ -*----------------------------------*\
| =========                 |                                                 |
| \\      /  F ield         | OpenFOAM: The Open Source CFD Toolbox           |
|  \\    /   O peration     | Version:  v1706                                 |
|   \\  /    A nd           | Web:      www.OpenFOAM.com                      |
|    \\/     M anipulation  |                                                 |
\*---------------------------------------------------------------------------*/
FoamFile
{
    version     2.0;
    format      ascii;
    class       dictionary;
    location    "0.14/uniform/functionObjects";
    object      functionObjectProperties;
}
// * * * * * * * * * * * * * * * * * * * * * * * * * * * * * * * * * * * * * //

results
{
    forces
    {
        vector
        {
            normalForce     ( 0 -0.0007420842834 0 );
            tangentialForce ( 0.0003536472154 0 2.308731942e-07 );
            porousForce     ( 0 0 0 );
            normalMoment    ( 3.710421417e-07 0 -0.0003675695316 );
            tangentialMoment ( 0 9.183762565999999e-08 0 );
            porousMoment    ( 0 0 0 );
        }
    }
}


// ************************************************************************* //
