/*--------------------------------*- C++ -*----------------------------------*\
| =========                 |                                                 |
| \\      /  F ield         | OpenFOAM: The Open Source CFD Toolbox           |
|  \\    /   O peration     | Version:  v1706                                 |
|   \\  /    A nd           | Web:      www.OpenFOAM.com                      |
|    \\/     M anipulation  |                                                 |
\*---------------------------------------------------------------------------*/
FoamFile
{
    version     2.0;
    format      ascii;
    class       scalarField;
    location    "0/lagrangian/dsmc";
    object      ERot;
}
// * * * * * * * * * * * * * * * * * * * * * * * * * * * * * * * * * * * * * //


99999
(
6.05055575817407e-20
1.94090723923361e-20
7.99364206538687e-22
4.37835979549216e-20
9.4393460300258e-20
7.57968571436992e-20
1.23055796019627e-20
1.12989359540839e-21
1.85742749537702e-19
1.50684270359496e-19
2.90075311108762e-20
5.55638103863889e-22
6.75596308617858e-20
1.50663909658546e-20
5.54291034800475e-20
4.25887906979418e-20
4.55632930643992e-20
3.67297855268046e-21
1.43667476169068e-20
2.09547534225873e-21
1.05043062318769e-19
1.22304578483661e-20
5.00479534987011e-20
5.6196319182037e-21
2.9368962575289e-20
1.43914558287676e-20
5.54848150248535e-20
4.5573460307632e-20
9.67055159797363e-20
1.00928307672224e-19
1.31740841764169e-19
1.20589900034882e-19
7.09935795517512e-20
3.50568496131063e-20
7.98916768972314e-20
4.94484519861071e-20
4.30152229842983e-20
9.11387206974367e-21
1.82462668499905e-19
2.49146302238111e-20
6.85822626342981e-20
7.00158457967298e-20
5.0404776116347e-20
5.35184586436078e-20
5.69106393756921e-20
6.14147630727568e-20
2.29251049796157e-20
1.51302853356151e-21
6.58854486884406e-20
1.85122941149344e-20
4.4151397078754e-21
1.24363199260775e-19
1.5618361645062e-20
3.83339487711164e-20
1.23604376406854e-19
2.22857637694849e-19
5.64582143921278e-20
1.37650057741097e-19
1.28438690253805e-19
4.77846858243252e-20
3.93909518959289e-21
8.74351274198067e-20
8.65401375369369e-20
1.13367344526617e-19
1.0460864811627e-20
1.45827464937132e-20
2.78970103531098e-20
3.05172936750718e-20
6.48332981041592e-20
1.34748628956006e-20
5.28753168094478e-21
8.52512644524067e-21
1.08466662921794e-19
2.05764576509514e-20
2.94037777964644e-20
5.39089347364793e-20
3.08974477704696e-20
5.17830646494773e-22
7.15459955357272e-21
1.99411038521596e-20
1.68327013116857e-20
2.24498254707529e-20
1.14319890395003e-19
5.31030682107328e-20
1.46352261701075e-21
2.56410330621668e-20
2.33058205205641e-20
8.35756767819192e-20
2.66001099468679e-20
6.56874017257578e-21
2.19626428663081e-19
1.78014804561278e-19
1.02876201048081e-20
1.31152993344985e-19
1.19060756559608e-20
2.25271878110039e-20
1.00545779991147e-21
1.2682820574021e-20
9.53903202185606e-20
1.19990402483179e-19
1.70746173478813e-19
5.10311062951571e-20
5.91604973301815e-20
3.8508932459874e-20
4.78316394521327e-21
1.39351768141117e-20
5.55388684128451e-20
5.63096059488028e-20
3.01309253812168e-20
1.99071695982022e-21
1.2420290510751e-20
1.7751683475416e-19
1.38205208798835e-19
1.64801006802311e-20
4.16943712585579e-20
5.05852971994254e-20
1.16858820070166e-20
1.12850973760466e-19
1.31131280771974e-19
4.81790815934761e-20
4.14710011299629e-20
1.29520193967168e-19
4.74604652623619e-20
5.7072703635884e-21
8.99607824913639e-21
1.41227588852058e-20
5.89265817251461e-21
2.72173055611313e-19
3.00544642755313e-20
8.48853197220079e-20
1.83747311338914e-19
4.96676436355712e-20
5.41938290080307e-20
9.04946439168015e-20
3.99587734228875e-20
9.78352484552243e-20
4.92120601951346e-20
1.21868643252769e-19
4.31579267469151e-20
5.42117025004106e-20
9.22881976039919e-21
4.13114709815304e-21
5.64144897747646e-21
6.78885393227721e-20
1.22111292814446e-19
3.90013391539462e-20
2.11398120074259e-19
5.84076021078723e-20
1.03325996485583e-19
4.19233128130779e-20
4.11775438584678e-22
3.58765338450625e-20
1.60743489571375e-19
7.64499788623541e-20
3.90423325376553e-20
4.55725241314262e-20
1.43710366053927e-19
4.7726513852749e-20
1.59564405799611e-19
1.59938323472263e-19
2.50754414054858e-19
1.29809229699516e-19
3.11647342763707e-20
8.56877929571871e-20
6.01696407631976e-20
1.58129041878375e-19
1.53111071328983e-19
1.47506143859055e-19
2.06763965288213e-19
3.13355948587838e-20
3.76436822254471e-20
4.7958845265067e-20
1.06768803489835e-19
5.80369338496132e-20
4.67547009281051e-20
5.85640763996703e-20
4.8661590864483e-22
2.21379252716918e-22
2.16906456880397e-19
6.98561671271037e-20
3.17826260039778e-20
9.48949747571713e-20
4.67601469073057e-20
6.36538217362459e-20
2.14253112824982e-21
1.06749967412135e-19
1.29982843415012e-20
3.88145201616149e-20
1.42983372417251e-19
6.59477176813565e-20
5.95571371408461e-20
2.43972267227258e-19
2.242659620856e-20
7.10913399865859e-20
7.43087216141447e-20
8.40836073856611e-20
1.98426209520789e-20
1.20854867746868e-19
1.67385767530713e-20
4.4601615447925e-21
8.94056268895198e-21
4.47991563703465e-20
1.74357816497418e-20
1.98188415915974e-20
7.90575575041979e-21
8.41681142288535e-20
1.18891356912725e-19
8.96453072081421e-20
7.29319361816369e-20
3.59436545921116e-20
3.22489629964712e-20
1.88332125424528e-20
2.05169981437361e-19
2.01426122687546e-19
7.42805687948845e-21
1.20019082268094e-19
1.03305100239794e-20
3.67846058603356e-20
1.41651526006791e-19
3.13610410354164e-20
1.28301082769703e-20
1.01648223935887e-20
1.86781026323243e-20
5.77432254586879e-21
7.69547035341775e-21
1.01853686994632e-19
1.61442276947819e-20
1.6927069787933e-19
6.92894663596831e-20
2.18679098292634e-20
5.30571313303871e-20
6.19558064409932e-20
3.07008930235601e-19
4.93915401674986e-20
2.60428644673486e-20
1.00091267253039e-19
4.17150491194604e-20
8.11184341424379e-21
5.47495561830983e-20
8.29290443158695e-20
2.90145590802416e-19
5.17806369067441e-20
3.2732675900769e-19
7.33543485634764e-20
1.53087404126141e-20
1.05101299892102e-21
1.31890181517612e-19
2.29203752490871e-20
5.37074001383585e-21
5.76081967219546e-20
1.38239418895109e-19
7.29767107381359e-20
1.77184146284472e-19
9.58656538911332e-20
2.21935815147472e-20
3.36476998501757e-20
1.71728675212201e-19
1.28077347384964e-19
7.32640434805572e-21
4.35219558563484e-20
1.81776662679497e-19
1.38001740272212e-19
4.76103392280804e-20
4.76484182289451e-20
3.07370953592637e-20
2.00473091186529e-20
1.33001754677881e-20
2.30433418303439e-20
9.20488018715444e-20
4.66707622702776e-20
7.01908313280907e-20
1.07814224256857e-20
6.42650620354079e-20
1.5276253331678e-19
4.15708589078706e-20
2.70681965918369e-20
7.52864098539152e-20
8.44225111669482e-20
6.78002488857569e-20
9.65178537503743e-21
4.96686977838157e-20
2.78678670490904e-20
8.22273775607798e-21
6.63878006498395e-21
4.24721396010407e-20
1.96723720640034e-19
2.69906108933177e-21
2.90356073578932e-22
1.31461991352012e-19
1.98627928689525e-20
1.25949317337105e-19
1.05002305390363e-19
1.00219425117122e-20
4.56466738901968e-20
8.10170972404395e-20
2.69922623252179e-20
3.84904218952992e-20
3.33755394761039e-20
9.16357344387595e-20
2.05232429223422e-20
1.82835809255143e-20
3.51603247279578e-20
5.92091535927473e-20
2.34761258155731e-20
5.93965028388434e-20
5.21054048834653e-20
3.24109030128479e-20
1.1036616000985e-20
1.57488421680257e-21
7.27126146202474e-20
1.31946093483213e-19
1.35520937452895e-19
2.50162684117509e-19
3.07572805834466e-20
3.33097618252379e-20
1.46073962128647e-19
3.33524562211261e-20
3.72040969056268e-21
3.99200109299312e-20
7.25685891376642e-20
5.0570716652724e-20
3.49550940878307e-19
5.79666897519242e-20
4.24757010023092e-20
4.49526849069874e-20
5.87281152744281e-20
5.39226849077621e-20
4.82769714113509e-20
1.8170384177281e-19
6.26311722822609e-20
1.52926218254368e-19
1.46377280732254e-19
2.27185569720804e-21
7.55674830374832e-20
1.1312105744543e-19
5.38800301308157e-21
7.38018675939089e-20
1.59584314905433e-20
8.87417821892402e-20
2.85324676466823e-20
9.16051370411192e-21
2.06463355701218e-20
8.47961096661395e-20
1.98593652431024e-20
5.55117923095965e-20
1.60587834895551e-19
1.33168201399931e-20
6.82643850672068e-20
3.25438960028115e-20
1.59265691864859e-19
1.11736934186074e-20
7.70510676874253e-21
8.92860810510217e-20
2.81533768712315e-20
1.48461283406873e-20
1.52948107890732e-19
2.9640703915677e-20
7.99153886402492e-20
4.29640018293525e-20
3.3183897211664e-20
6.98240808682644e-20
1.85963902099793e-19
2.55942742987508e-21
1.43260059944916e-19
5.48743561391942e-20
1.70044880201655e-19
9.63564489336885e-21
1.0242188895063e-20
9.04100436276202e-20
1.7764201135888e-19
3.132235329386e-20
9.01157736325417e-21
4.95687874665322e-20
9.81410363866321e-20
3.64677137550152e-20
1.37336564615053e-19
6.43548522799766e-22
2.30597843857803e-19
2.57066407700052e-20
1.49448365755761e-20
4.10997768167192e-20
7.68195385143299e-20
2.55793552534068e-19
9.29381864735958e-20
1.59289471006616e-19
1.37976744179983e-19
7.92304312576209e-20
8.68656392678571e-20
7.17683186419524e-20
1.75695956736693e-19
2.05986752409285e-19
8.68206579332111e-20
1.41017159160899e-20
2.27561208569989e-20
1.32545056694038e-19
3.32221227432092e-20
1.01256182710776e-19
1.55526274273412e-20
5.24154182559164e-20
4.99009932649288e-20
7.1357485767815e-20
6.16616390786428e-20
6.24877579700267e-20
5.15097032371325e-20
2.9583227632572e-20
4.97203883143742e-20
2.64078443204807e-20
5.72430897633935e-20
9.64968271157782e-21
1.38000349539683e-19
2.0242157625532e-20
4.60315859974917e-20
3.08978424892779e-20
2.06103417435663e-20
1.56205226244958e-20
4.07525433627846e-20
1.80761570178156e-20
7.12411714344474e-21
2.33392578816759e-20
5.55498660729717e-20
5.63804261561327e-20
7.47540180129154e-20
7.48814860174628e-20
3.36666313811531e-21
1.90553433610144e-19
6.23901714066534e-20
2.6152469096542e-20
7.37538895995921e-21
5.52082218297496e-20
2.60829468159189e-20
5.87210460373765e-20
3.60557811374594e-20
1.53596235166874e-19
3.65128816499086e-20
3.5485738030153e-20
3.59071762440719e-20
4.66871470951463e-19
7.23290653661749e-20
3.10740464888471e-20
9.06460549878416e-21
4.85550147952218e-20
1.26102900799592e-19
9.42199855566836e-20
3.55067702159421e-20
6.19334987112774e-21
4.98318056323691e-21
4.80243137312239e-20
6.07899836139252e-20
2.95359700458213e-20
4.15703250695652e-20
2.38896810883776e-20
6.10652325756025e-20
3.87163175394917e-20
1.94979648045361e-20
2.14321392679642e-20
6.61478325755934e-20
7.25876978005024e-20
2.34045969536636e-20
1.06043288654205e-19
6.21791908894282e-20
5.96005118598096e-20
1.22741558609772e-20
1.98486370185484e-20
5.52484553040082e-20
1.63037709352359e-20
3.50915356873584e-20
1.89561368426049e-20
8.70124385709779e-21
1.04734098695667e-19
1.61286011539852e-20
6.34387384712972e-20
1.78625748130086e-20
7.38173886581896e-20
1.01296407380594e-19
8.06329503805101e-20
7.58381039184286e-21
1.35632291749578e-19
1.41693674308162e-19
2.78257882892278e-20
1.30148574949557e-19
1.10548360867985e-19
2.01714117236327e-20
6.11730759321116e-20
3.7881002043922e-20
5.29747625882031e-20
1.53699415237422e-20
2.01958795205012e-19
4.00144940787794e-20
1.41598342396864e-19
4.49523817353826e-20
9.17747190286358e-20
7.20644963117424e-20
1.70739534999927e-20
3.15571127395727e-20
4.33981505113353e-20
1.59910141621441e-19
2.73715782946292e-21
4.89509351132269e-23
3.78280820802343e-20
2.19231214100566e-19
7.02318209447615e-20
1.13332814113484e-20
1.41712132756967e-19
2.71781843978772e-20
1.81040710512453e-19
4.69943888673886e-20
5.15119760069591e-21
2.91419403322978e-21
3.31378808063215e-20
3.13242204730948e-20
4.9202547307359e-21
1.13683204397018e-19
4.11419685943771e-20
3.52322389438709e-20
2.69578033598181e-20
1.43418229343464e-19
8.10417037112407e-21
1.88675672843352e-20
1.79998206883142e-20
2.17008437326022e-20
2.87298581305529e-20
9.95772692138628e-20
3.87589153039398e-20
1.39751365807989e-20
1.27828608460706e-20
5.77916764157252e-20
3.74812440104335e-20
3.92716902491118e-20
1.1133060853764e-19
5.7222647017993e-20
1.32929809722394e-20
6.40089865579714e-22
4.33193904697306e-20
1.63860270436607e-19
4.66942707443268e-20
2.50722251250988e-19
8.67645815694066e-20
4.67100696151386e-20
1.81591484672891e-20
4.72972004672375e-20
4.04728833825427e-20
6.67887889189686e-20
1.03245051007569e-19
1.02106235637236e-19
6.17194332124658e-20
2.74057005415059e-20
3.22433973643162e-20
3.79150209741175e-20
1.32809755752756e-19
2.86115569717944e-19
8.15851653890274e-20
9.78142301291156e-21
7.55077512161861e-20
1.43103231990354e-20
4.35208836163688e-20
1.29594885324403e-20
3.2978276533768e-20
2.79519730384541e-20
2.93972664502903e-20
6.62827689842101e-21
2.74318038758394e-20
9.77471735397666e-20
2.66323723494981e-20
6.76919661450398e-20
1.03631008432214e-19
4.01464310374188e-20
7.18039351597053e-20
6.08450481400228e-20
1.39658087502966e-20
4.44088094293323e-21
3.24000923347295e-20
6.37319186117419e-21
1.45294445227471e-19
1.69736453612977e-19
1.81685986019523e-19
3.03311411309174e-20
3.67120361799747e-21
1.21211390912622e-19
1.4231745643101e-19
2.30825855421334e-19
1.04557596849844e-20
3.89494060668738e-20
8.7698356382406e-20
9.60874630510695e-21
1.0628843675351e-21
1.91580747881498e-19
2.971315777063e-19
1.17266141221806e-19
1.08185976499473e-19
4.78721927474547e-20
3.15986562715993e-19
2.4512223476323e-20
2.66500629608858e-20
3.40192183408932e-20
8.31942311373126e-21
6.53263692769051e-21
2.72123472531446e-20
1.27124775933142e-20
6.00718609522686e-22
1.47693968815065e-20
5.6288413905346e-20
2.55801230895949e-20
1.44475428002467e-20
1.13211936642826e-20
4.994887160149e-20
1.84289219798742e-19
2.02791029143068e-20
6.93901840573963e-20
4.30351822704522e-20
2.74376302489308e-20
2.87099549165256e-20
6.05958108385793e-20
6.03555192526552e-20
2.45469333259645e-19
7.52130358750483e-21
9.11276383741835e-20
8.39941780170287e-20
4.49942717471946e-20
1.72286038031106e-20
6.46702411787065e-20
6.6050563620689e-20
2.82899868016742e-20
1.81373578606532e-20
2.94024216412197e-19
1.34451910192135e-20
1.25221655509424e-19
1.07208393931378e-19
3.94603284530784e-21
7.84165360009988e-20
1.37466691689705e-19
1.43254923753792e-20
7.08417662361038e-20
8.14313488361719e-21
9.2752981386835e-20
1.12047696931268e-19
3.21769406905793e-20
2.10060954140279e-19
2.1231064788651e-19
1.17025417578429e-19
4.55772774562393e-20
9.32822464230084e-21
3.20984195412737e-20
2.24072578738256e-19
1.07092944146577e-19
2.08306359409005e-19
5.76266977921581e-20
3.83767016298959e-20
6.69908011775728e-21
5.16713330294577e-20
2.09498149159693e-20
4.36912828422773e-20
1.91494982748434e-19
2.76953651953354e-20
4.08441531001664e-19
1.60996614394439e-20
3.11385780654996e-20
1.80407443453226e-19
1.16229915081185e-20
1.18751459941712e-19
5.10413095169971e-20
2.56859276970316e-21
2.91404460032097e-22
6.88384179366718e-20
2.0806212016009e-19
4.27364953938779e-20
7.79755477608669e-20
3.58920691267173e-20
3.914051665181e-20
1.20288990593744e-19
5.74745602697517e-20
9.1946576409916e-20
6.13071931293423e-20
2.07273583044285e-20
1.32492643749729e-20
5.22467555969676e-20
6.59708168502251e-20
1.09263115722998e-19
1.33680816465856e-19
3.20551995119518e-20
2.87086122090494e-21
1.63444181761699e-19
8.10703354420159e-20
5.75027768823205e-20
4.03797253584387e-20
3.46187247285105e-20
4.75801041812514e-21
4.47648135570423e-20
5.31591924932747e-20
3.07999903653697e-20
2.24176262130327e-19
2.53255761739924e-20
2.08177363882265e-19
6.26247927445119e-20
1.89521445266345e-19
6.15193260508224e-20
3.63622837619573e-19
6.20994170576568e-20
2.17497000930263e-20
2.11978487660272e-20
1.00713965300623e-19
3.60318307419681e-20
3.51023161111176e-20
4.6611124383573e-20
9.73035104425514e-20
1.1782650550943e-20
7.15519376307528e-20
9.39923117254269e-21
1.19277568889357e-19
1.29546517450802e-20
5.11265506752622e-20
2.75493896820953e-20
8.86388245168557e-21
1.69390269701076e-19
4.31047783339667e-20
3.25251612389009e-21
1.90841500902007e-19
1.59902420006041e-19
7.86114781938202e-20
1.98565473804457e-19
2.97618611725594e-20
1.40036370849065e-19
3.25451457120322e-19
2.86327541992267e-20
2.44439544854121e-20
3.21085232513332e-20
9.33054248570144e-20
7.36461018247905e-20
2.84634520366142e-20
2.73901227110204e-20
4.9796698011725e-20
6.37522836993593e-20
7.59755299506679e-20
4.76231436013726e-20
3.59910860483599e-20
9.337298744842e-21
3.38736617129451e-20
5.76993823951073e-20
5.33705781221989e-20
9.76579797501227e-20
4.45500442253785e-20
4.13285955957837e-20
3.16885944183315e-21
1.21532841882394e-19
1.37631858941634e-19
3.53860080416952e-20
8.92377099261754e-22
2.6487799694005e-19
1.44369917460668e-19
2.91676384130756e-20
1.11389293935299e-19
1.00657662317958e-19
1.21868868197513e-19
1.28300955444729e-19
6.67337881937335e-20
7.14268718880023e-20
1.11900276910918e-19
2.2549866631768e-20
1.22249684036317e-19
9.03743806046247e-20
1.40078989678367e-19
2.95930329798471e-19
8.61473211104927e-21
1.14427134221836e-19
3.02053479581505e-20
3.083444768169e-20
1.20339578525225e-19
2.8163972103402e-19
2.01122109298956e-21
5.84058617120874e-20
7.42317687233721e-20
7.49031878108645e-20
7.30233085962261e-20
5.70260788252467e-20
5.92429658092617e-21
1.56912927170587e-20
4.5219513632951e-20
1.69666557845257e-20
6.543860932147e-20
7.96334790732313e-20
1.14573397110962e-20
1.44562404866843e-19
2.03711532130869e-20
1.56013660406976e-20
1.14168323585657e-19
1.40895240281983e-20
6.8674473206422e-21
4.15359916571771e-20
1.69232776578694e-20
8.79066067868609e-20
6.91274011318777e-20
3.72164277663349e-20
1.02215279375026e-21
7.25015095339481e-20
1.89458076417466e-20
7.07713595092266e-20
6.20846844743981e-21
6.89733200949386e-20
7.86529317579113e-20
1.03302446117564e-19
1.13725075754045e-19
3.66660454931914e-20
4.3139020099955e-20
5.31635984761992e-20
1.3407864066442e-19
1.19383878317903e-19
5.88068519447187e-21
4.07994080783216e-20
2.03325142013917e-19
7.49787384573657e-20
3.31720359945166e-20
1.9145245389809e-19
2.99597709239792e-21
1.21330472496389e-21
2.52719626448256e-20
1.05894855260343e-20
1.31193672036673e-19
1.17892481777816e-19
8.14841120373311e-20
1.43793833267327e-20
5.37991643222443e-20
1.3642029343264e-20
1.62285615492417e-22
2.01539847780335e-19
2.2299785515365e-20
1.04301716523099e-20
1.7593516928916e-19
1.00560770395043e-19
2.25112067220063e-20
5.66044441557723e-20
4.98040873194257e-20
2.7946184860959e-20
8.26826033924206e-22
2.90007878688627e-19
4.47718043777954e-21
2.04044540212097e-19
1.73233427563476e-20
1.23744727866027e-19
5.9683753539667e-20
2.57916472313209e-19
1.41545781180591e-19
1.83231208108863e-20
1.27856135135705e-19
3.06055281655184e-20
5.98122588680837e-20
5.38680303964657e-20
3.5381632599821e-20
4.26885631315367e-20
1.02789199605621e-20
1.87643664606711e-20
7.11854882019282e-20
5.57341762667156e-20
2.70313711833787e-19
5.71337928935414e-21
5.74276460056004e-21
1.44898054084176e-20
1.6265752002205e-19
2.88696398180874e-19
1.79146175868369e-19
1.84777288716261e-19
1.23943005332556e-19
8.40836680881259e-20
1.211051066176e-20
1.13332695671741e-19
6.20048597251539e-20
3.68247479686881e-20
9.89265275160497e-21
7.93117584737535e-20
4.31942697110204e-20
3.11400061292807e-20
1.36923639129059e-19
3.62792994294739e-20
5.15404586819298e-20
1.10602149536418e-19
1.26004708377317e-19
8.81035358186567e-20
2.60161478589649e-19
2.26946908534731e-20
4.22528720913519e-20
1.1336938220107e-20
6.12437434185481e-20
7.36141386545074e-20
3.58972679275507e-20
2.96531721698513e-20
4.02229734456749e-20
3.32634785140307e-21
1.13850598141683e-20
1.60731043121282e-19
6.50428842910626e-22
4.00127911617752e-20
5.33294725436066e-21
3.16231171754481e-20
2.1579405280025e-20
1.47303517887136e-19
2.13137874512444e-20
1.41536893301489e-19
9.15603510116941e-21
3.35267386313648e-20
1.44947483919926e-19
1.27242858293179e-21
2.32377742646593e-20
1.69381765237527e-20
4.56856102067816e-21
7.61117694717286e-20
2.0345791044529e-19
9.29326489985214e-20
5.65188767395168e-21
9.64076480734776e-20
3.241510182196e-20
1.07527395677316e-19
1.3798416540677e-19
1.09572691567531e-21
6.21849729868449e-20
3.42354171857736e-20
1.95910393425554e-21
2.79956021280658e-20
5.57161932997955e-20
1.02393450818449e-19
2.25971399373607e-20
1.56155499629233e-21
7.93679981179032e-21
1.30287115889342e-19
2.02284492127844e-21
7.14090392544433e-20
7.83988583597585e-21
4.02326872119579e-20
4.13117386866912e-20
7.44487588340162e-21
3.22925537324364e-20
1.23068297579297e-19
2.62295737269597e-20
1.18995449011203e-20
3.18975131286316e-21
1.91432285257167e-19
8.78137678666248e-20
2.2596673436194e-19
3.10964447110164e-20
4.61907731041819e-21
2.28357044322906e-20
3.91905514478975e-20
6.65151950551664e-21
1.36197578585487e-20
1.09659604362376e-20
7.63539979714045e-20
3.02642609586929e-20
1.22592464469335e-20
2.96294221338071e-20
4.17573892309987e-21
3.5872606167889e-20
2.28732299768649e-20
2.81713567819009e-20
1.25300996481663e-21
1.5383403765662e-20
8.92017721117936e-21
1.15480126332536e-19
1.58789113670083e-20
4.14084661241911e-20
9.77588836745279e-20
2.97415810515245e-20
3.95815730225599e-20
6.07496475331211e-20
2.45169960668856e-20
4.5032585328031e-20
3.55275636282208e-20
1.86834458156411e-20
1.4230067427387e-20
7.33137837179889e-20
2.13701824177008e-19
6.29041761006084e-20
1.5814550094533e-20
3.43222080291555e-20
2.28207412071953e-20
1.28097080943442e-19
7.25393570255829e-21
4.46125831431413e-20
5.92006725239096e-20
2.1596364661478e-20
1.51084099481032e-20
5.22258009015529e-20
7.76331716834479e-20
1.40963150448603e-20
2.95355804544572e-20
1.36212342192812e-19
1.72722614372835e-20
6.07566714377212e-20
5.24858606978218e-20
9.00397388177616e-20
1.01790116983913e-19
1.04227621458015e-20
4.65211379571329e-20
2.39118413474851e-21
3.0750691488859e-19
7.41677287291554e-20
5.35828821731662e-21
3.96283962103335e-20
8.95769490401737e-21
4.80406204936038e-20
1.30549016927329e-20
1.73071130646065e-20
2.37320351038673e-20
4.46194518327827e-20
4.58622546396179e-20
7.93336002798658e-20
1.57251357655416e-19
2.25326152473029e-19
3.69936214470635e-20
1.07253267181638e-19
3.99170538731074e-20
1.36861111222776e-20
2.08909002594722e-20
5.45262518868467e-20
2.5811512142809e-20
9.77129203129658e-20
1.01826593018728e-20
1.0696176589736e-19
4.66911471169179e-21
3.9529945212324e-20
4.5514185783357e-20
4.09390403772554e-20
9.81705185454928e-20
1.29009570277977e-19
4.39807762873839e-21
3.32860043660543e-21
1.58250253905806e-19
3.5010965654315e-19
2.44954823601485e-21
1.28179410616252e-19
4.9746344712952e-20
5.34585951814538e-20
8.21910866399117e-21
2.74629095446904e-20
4.74508067096738e-21
1.79065602642302e-19
2.61103237510064e-20
5.61201692769607e-21
2.10808050707618e-21
3.46448253697084e-20
5.12176547497106e-20
1.90835813023871e-20
4.95210625552145e-20
5.38216991916271e-20
3.93004226302069e-20
2.32935601040297e-20
1.08926299356205e-19
2.136502081522e-19
4.91755317844711e-20
1.81966473955261e-20
1.53604743426726e-19
1.82404899772967e-20
2.18871550044737e-20
5.2174631493116e-20
6.70977485183661e-20
6.77492808790716e-20
1.27817945241552e-19
1.30588634822763e-20
3.77704110622496e-20
3.79439025986525e-20
7.07775070919108e-21
1.28736482289232e-20
1.20036700165393e-19
1.65865251598631e-19
5.86280313002784e-20
4.05821864734096e-20
4.6772405441844e-19
3.86494015351937e-20
2.2282527615928e-21
1.41681974226702e-20
1.48621641083594e-19
3.06516270920195e-20
1.15213434714112e-19
1.19674517568209e-19
3.93283301956048e-20
2.39529378922479e-19
7.86448943940072e-21
4.40562089834116e-20
1.5498105079185e-19
4.35667907851477e-20
5.22820773878406e-20
1.61592186813927e-19
9.08706881933483e-20
2.24755049089098e-20
1.39588788078563e-20
4.88998842685298e-21
3.6285649699347e-21
1.45953737631468e-21
1.88039733013423e-20
1.46605060081554e-19
3.17083851577392e-20
1.23080680903655e-19
1.27553168055019e-19
6.5981771435462e-20
2.36926694876733e-20
7.08614505123525e-21
6.94804350622576e-20
1.57821748582108e-19
7.18401846016361e-20
1.85146795924348e-19
1.47795772263457e-20
2.48166123385212e-21
1.92003699738763e-21
1.35225162662515e-20
7.97633329824638e-21
9.56356941661525e-21
3.67561751090591e-20
6.96858631304635e-20
1.06023595537677e-19
1.74241053541381e-20
2.03992001389996e-19
4.62399386633419e-21
4.12734351420513e-20
2.22609729154769e-19
1.01210503661381e-20
3.57113650548787e-20
3.19835604760155e-20
3.22247557464433e-20
2.39126297728734e-20
1.56609038360851e-19
5.08577176774487e-20
2.52693021401033e-20
1.58291189313814e-20
3.86522578915093e-20
4.80420026677663e-20
4.38778586912361e-20
4.25641484324069e-20
1.27955293093214e-20
7.60596548405957e-20
7.05523071760091e-20
3.39222575863421e-20
1.4824298083112e-19
6.23606959111455e-20
1.62975343850591e-20
8.60997295364681e-20
6.3942383896261e-20
1.32322174162996e-20
1.77884925830503e-19
1.42513376035305e-20
7.37152110634895e-20
1.42300296997117e-20
8.00181119614934e-20
2.3483633881031e-20
5.05705766255732e-20
1.41388117647138e-19
1.93632325354572e-20
6.62898001023412e-21
2.2189890722658e-20
3.58041029190144e-20
1.59351368315336e-19
6.49076340628109e-20
6.58118081163923e-23
2.77882602360151e-20
4.5385873623208e-20
3.42899376779415e-20
5.31438557412449e-20
5.0612905058398e-20
1.05061448564829e-19
9.37174974465952e-20
1.46238245276501e-20
7.91102123991299e-20
6.31510844994176e-20
4.99394952826708e-20
6.16820117116527e-20
4.24813008332934e-20
1.21862618412126e-19
1.2923019746805e-21
3.52107977871902e-20
2.4549497624576e-20
8.49282709774629e-21
1.52213353052899e-19
5.60888996816576e-22
5.81981696229881e-20
5.1905401974947e-20
5.23757500877724e-20
6.41946981215408e-20
1.97189324137579e-20
5.4997337848146e-20
9.15142420000629e-20
6.95425008229386e-20
6.78469051069582e-20
7.54778469512925e-20
4.55735445758852e-21
1.04774362421723e-19
8.15137039342844e-20
2.8101898001007e-19
4.18280211487037e-20
3.71102649753814e-20
9.66724837787571e-20
2.14015044490424e-20
8.31843801651374e-20
7.15378278829607e-20
3.42917052866487e-20
2.90691633937556e-20
5.08483539220082e-20
3.27405445839274e-20
5.89490837731416e-20
2.15008469239034e-19
1.47257090783939e-19
1.14358799215812e-20
6.56278192650332e-20
7.47974553632151e-20
1.50999728520895e-19
3.13094005113006e-20
8.12930793207887e-20
1.85824104146568e-20
3.57104361121815e-20
1.11726997855886e-19
1.19692242392122e-19
4.15445892170805e-20
1.18773742292045e-19
2.47950816798222e-20
9.16950857708418e-20
7.17987039618065e-20
1.87889317492481e-20
3.70113542296608e-20
5.69158080498543e-20
9.1107374774858e-20
5.32861724308943e-20
8.37642305021908e-21
3.43956745527371e-20
3.89327395653487e-21
4.91562585339524e-20
4.1702214165118e-20
1.68082797096128e-20
5.65346946700158e-22
1.13137150110297e-19
1.25864771362136e-19
2.05886969368797e-19
4.80564787993469e-21
9.78866010623484e-20
1.69851403008032e-20
3.39396800372054e-21
1.55855487299017e-21
5.04365346553093e-20
1.766806947164e-20
3.93717529581945e-20
2.0130255779196e-20
1.27764997240717e-19
7.66989122972419e-20
3.88866047424473e-20
1.56051786065321e-19
2.25503958647806e-21
1.71706907138992e-19
1.32104681380702e-19
2.1514005199863e-19
5.14278587158381e-20
1.38521444739385e-19
3.76730482704969e-20
1.40221588158454e-21
2.01324550968064e-19
1.70576540475412e-19
8.10822481240888e-20
3.36659294297626e-20
1.05465373550417e-19
5.02428428479966e-21
4.0553265753044e-20
6.17110246792125e-20
5.59193307485617e-20
9.58155860087606e-20
4.48213324869373e-20
3.09315199864841e-21
9.03283409648367e-20
9.85997353991265e-20
1.91454753967212e-20
1.01357821973326e-19
9.29326291094065e-20
1.78216106693242e-21
1.44751842199896e-20
3.86719557907232e-20
5.49924238280578e-20
2.81410808833753e-20
6.05587042650795e-21
8.24643340064479e-20
7.52142579526278e-20
1.00459025491657e-19
2.7361636370181e-20
3.51249838254517e-20
7.34763583929939e-20
3.06790787473939e-20
4.31329240300887e-21
1.80850835388315e-20
1.80875593057059e-19
8.29611587630512e-20
3.21283432516882e-20
2.4927573992606e-19
3.96135305704186e-20
6.95830392862939e-20
5.97332228804257e-20
6.848912557041e-20
1.46093106493868e-19
1.7966945584094e-20
6.83564551449855e-20
1.77273801325665e-19
2.4858752658223e-20
6.53210975253512e-20
6.37133399996416e-21
1.32683996658513e-20
1.15399801004305e-19
3.57513390753281e-20
8.53573513623692e-20
3.57328583524612e-21
2.1994582989587e-19
3.10717004954878e-20
9.17274501549109e-21
3.31866822868866e-19
1.05348786314264e-21
1.20516271599295e-20
2.7680180286417e-20
2.16696925521614e-20
8.27961635444364e-20
7.62150477690673e-20
2.09160308915166e-20
5.34817010759438e-20
3.13756600038201e-20
1.74801271745447e-20
7.78730094797645e-20
4.92756286397838e-20
8.26422007713129e-20
7.50667407863058e-21
3.79895222279578e-20
6.36478428353462e-20
6.98813062578882e-21
6.51835078326228e-20
4.15423305754194e-20
7.27006422787661e-20
3.62648278783815e-20
1.65155119693811e-19
1.95515294298609e-19
4.49215025426318e-20
4.4756606954693e-22
1.19395033124925e-20
2.09426388668064e-20
5.27292080438157e-20
4.98444201750075e-20
2.14866638613017e-19
3.21421052790733e-21
1.17718382065332e-19
5.29809879800507e-20
6.05269167349005e-21
1.14695523902186e-19
2.66020785711988e-20
7.0863318046328e-20
8.84589008786092e-20
2.88311337385687e-20
9.58964780004015e-21
1.99800613483113e-20
4.66612029350608e-20
3.3792017622777e-20
7.45624734963522e-20
8.72152424349943e-20
2.084237872992e-20
2.40936881625296e-20
5.07301424208711e-20
1.16427919481266e-19
2.27914397681189e-20
2.43359010689876e-20
4.33693758818473e-21
1.0684520026365e-20
1.74320053211398e-20
3.16223267584428e-20
8.81022284891289e-20
1.79392637720973e-21
6.63003921039217e-20
6.64013080767671e-20
1.43009630868313e-19
3.47145839691487e-20
6.8059471575633e-21
4.89664777971066e-19
2.2887937100767e-20
9.03984384470467e-20
3.93113481524114e-20
1.54634839537398e-19
2.66075621596072e-20
1.85674266464833e-19
8.50119900625437e-20
1.53814700595135e-20
2.98365848072984e-19
3.69288065547879e-20
1.49459784767034e-19
5.32433533571837e-20
9.19370502380611e-21
5.88492026282256e-20
4.00874015072005e-20
3.59561470528248e-20
1.16777972636574e-19
3.6369869356597e-20
5.43699678000357e-20
4.70890447850495e-21
2.97714094908523e-20
1.07939578766416e-19
2.63607196726587e-20
1.02045663978935e-19
1.476876670345e-19
9.0963234922053e-20
3.13007752124575e-20
9.2271475387731e-20
2.09369755621048e-20
1.26198703355424e-20
5.64460474666423e-20
3.38424077426478e-20