/*--------------------------------*- C++ -*----------------------------------*\
| =========                 |                                                 |
| \\      /  F ield         | OpenFOAM: The Open Source CFD Toolbox           |
|  \\    /   O peration     | Version:  1.7.0                                 |
|   \\  /    A nd           | Web:      www.OpenFOAM.com                      |
|    \\/     M anipulation  |                                                 |
\*---------------------------------------------------------------------------*/
FoamFile
{
    version     2.0;
    format      ascii;
    class       dictionary;
    location    "constant";
    object      transportProperties;
}
// * * * * * * * * * * * * * * * * * * * * * * * * * * * * * * * * * * * * * //

rarefiedParameters
{
    computeFieldAndBoundaries      on;
    computeMfpBoundaries           on;
    
    mfpModel                       hardSphere;
    writeMfpSpecies                off;
    writeMfpMixture                on;
    
    characteristicLength           2.0;
    writeKn_overall                off;
    
    writeKnGLL                     on;
    writeKnGLL_components          off;   
}


transportModels
{
    viscosityAndThermalConductivityModels   "see thermophysicalProperties";
    mixingRule                     Wilke;
    writeViscositySpecies          off;
    writeViscosityMixture          on;
    writeThermalConducSpecies      off;
    writeThermalConducMixture      on;
    
    writeWallHeatFlux              on;
    
    multiSpeciesTransport          Fick;
    binaryDiffusionModel         collisionData;
    
    
    //- Parameters for transport modelling
    correctedArmalySutton          off;
    
    diffusionModelParameters
    {
        addPressureGradientTerm        off;
        addTemperatureGradientTerm     off;
        
        LewisNumber                    1.4;
        
        collisionDataModel    "Gupta1989D";          
        
        constantBinaryDiffusionModelCoefficients
        {
            allSpecies                 1.0e-5;
        }
    }
}    
    
    
collisionData
{
    tabulatedInteractions
    { 
        // NASA-TM-101528 (Gupta, Yos, Thompson: Feb. 1989)
        // Document ID: 19890011822
        // A review of reaction rates and thermodynamic and transport 
        // properties for the 11-species air model for chemical and thermal
        // nonequilibrium calculations to 30000 K
        Gupta1989D
        {
            // Table VI
            Dbar
            {
                N2_N2   (0 0.0112 1.6182 -11.3091);
                N2_O2   (0 0.0465 0.9271 -8.1137);
                O2_O2   (0 0.0410 1.0023 -8.3597);
                N_N2    (0 0.0195 1.4880 -10.3654);
                N_O2    (0 0.0179 1.4848 -10.2810);
                N_N     (0 0.0033 1.5572 -11.1616);
                O_N2    (0 0.0140 1.5824 -10.8819);
                O_O2    (0 0.0226 1.3700 -9.6631);
                O_N     (0 -0.0048 1.9195 -11.9261);
                O_O     (0 0.0034 1.5572 -11.1729);
                NO_N2   (0 0.0291 1.2676 -9.6878);
                NO_O2   (0 0.0438 0.9647 -8.2380);
                NO_N    (0 0.0185 1.4882 -10.3301);
                NO_O    (0 0.0179 1.4848 -10.3155);
                NO_NO   (0 0.0364 1.1176 -8.9695);
                
                NO+_N2  (0 0 1.9 -13.3343);
                NO+_O2  (0 0 1.9001 -13.3677);
                NO+_N   (0 0 1.8999 -13.1254);
                NO+_O   (0 0 1.9 -13.1701);
                NO+_NO  (0 0.0047 15.5552 -11.3713);
                NO+_NO+ (-0.1251 3.5135 -29.7280 74.1550);
                e-_N2   (-0.1147 2.8945 -23.0085 65.9815);
                e-_O2   (-0.0241 0.3464 0.1136 -1.3848);  // T = 1000-9000 K
              //e-_O2   (-0.0029 0.0856 0.6655 -0.8205); // T = 9000-30,000 K
                e-_N    (0 0 1.5 -2.9987);
                e-_O    (0.0581 -1.5975 15.4508 -40.7370);
                e-_NO   (0.2202 -5.2261 42.0630 -106.0937);  // T = 1000-8000 K
              //e-_NO   (-0.2871 -8.3759 82.8802 -267.0227); // T = 8000-30,000 K
                e-_NO+  (-0.1251 3.5134 -29.7272 79.2610);
                e-_e-   (-0.1251 3.5136 -29.7290 79.6126);
                N+_N2   (0 0 1.9 -13.1144);
                N+_O2   (0 0 1.9 -13.1357);
                N+_N    (0 0.0033 1.5572 -11.1616);
                N+_O    (0 0 1.9 -13.0028);
                N+_NO   (0 0 1.8999 -13.1254);
                N+_NO+  (-0.1251 3.5135 -29.7285 74.3825);
                N+_e-   (-0.1251 3.5134 -29.7272 79.2611);
                N+_N+   (-0.1251 3.5134 -29.7274 74.5342);
                O+_N2   (0 0 1.9 -13.1578);
                O+_O2   (0 0 1.9 -13.1810);
                O+_N    (0 0 1.9 -13.0028);
                O+_O    (0 0.0034 1.5572 -11.1729);
                O+_NO   (0 0 1.9 -13.1701);
                O+_NO+  (-0.1251 3.5133 -29.7268 74.3330);
                O+_e-   (-0.1251 3.5134 -29.7274 79.2616);
                O+_N+   (-0.1251 3.5134 -29.7275 74.5023);
                O+_O+   (-0.1251 3.5134 -29.7277 74.4687);
                N2+_N2  (0 0 1.9 -13.3173);
                N2+_O2  (0 0 1.9 -13.3495);
                N2+_N   (0 0 1.9 -13.1144);
                N2+_O   (0 0 1.9 -13.1578);
                N2+_NO  (0 0 1.9 -13.3343);
                N2+_NO+ (-0.1251 3.5134 -29.7279 74.1721);
                N2+_e-  (-0.1251 3.5134 -29.7273 79.2613);
                N2+_N+  (-0.1251 3.5135 -29.7288 74.3947);
                N2+_O+  (-0.1251 3.5133 -29.7269 74.3453);
                N2+_N2+ (-0.1251 3.5135 -29.7282 74.1899);
                O2+_N2  (0 0 1.9 -13.3173);
                O2+_O2  (0 0 1.9 -13.3495);
                O2+_N   (0 0 1.9 -13.1144);
                O2+_O   (0 0 1.9 -13.1578);
                O2+_NO  (0 0 1.9 -13.3343);
                O2+_NO+ (-0.1251 3.5134 -29.7279 74.1721);
                O2+_e-  (-0.1251 3.5134 -29.7273 79.2613);
                O2+_N+  (-0.1251 3.5135 -29.7288 74.3947);
                O2+_O+  (-0.1251 3.5133 -29.7269 74.3453);
                O2+_N2+ (-0.1251 3.5135 -29.7282 74.1899);
                O2+_O2+ (-0.1251 3.5135 -29.7282 74.1899);
            }
        }
        
        // NASA-RP-1232 (Gupta, Yos, Thompson, Lee: Aug. 1990)
        // Document ID: 19900017748
        // A review of reaction rates and thermodynamic and transport 
        // properties of an 11-species air model for chemical and thermal
        // nonequilibrium calculations to 30000 K
        Gupta1990D
        {
            // Table VII
            Dbar
            {
                N2_N2   (0 0.0112 1.6182 -11.3091);
                N2_O2   (0 0.0465 0.9271 -8.1137);
                O2_O2   (0 0.0410 1.0023 -8.3597);
                N_N2    (0 0.0195 1.4880 -10.3654);
                N_O2    (0 0.0179 1.4848 -10.2810);
                N_N     (0 0.0033 1.5572 -11.1616);
                O_N2    (0 0.0140 1.5824 -10.8819);
                O_O2    (0 0.0226 1.3700 -9.6631);
                O_N     (0 -0.0048 1.9195 -11.9261);
                O_O     (0 0.0034 1.5572 -11.1729);
                NO_N2   (0 0.0291 1.2676 -9.6878);
                NO_O2   (0 0.0438 0.9647 -8.2380);
                NO_N    (0 0.0185 1.4882 -10.3301);
                NO_O    (0 0.0179 1.4848 -10.3155);
                NO_NO   (0 0.0364 1.1176 -8.9695);
                
                NO+_N2  (0 0 1.9000 -13.3343);
                NO+_O2  (0 0 1.9001 -13.3677);
                NO+_N   (0 0 1.8999 -13.1254);
                NO+_O   (0 0 1.9000 -13.1701);
                NO+_NO  (0 0.0047 15.5552 -11.3713);
                NO+_NO+ (0 0 3.5000 -30.3210);
                e-_N2   (-0.1147 2.8945 -23.0085 65.9815);
                e-_O2   (-0.0241 0.3464 0.1136 -1.3848);  // T = 1000-9000 K
              //e-_O2   (-0.0029 0.0856 0.6655 -0.8205); // T = 9000-30,000 K
                e-_N    (0 0 1.5000 -2.9987);
                e-_O    (0.0581 -1.5975 15.4508 -40.7370);
                e-_NO   (0.2202 -5.2261 42.0630 -106.0937);  // T = 1000-8000 K
              //e-_NO   (-0.2871 -8.3759 82.8802 -267.0227); // T = 8000-30,000 K
                e-_NO+  (0 0 3.5000 -25.2128);
                e-_e-   (0 0 3.5000 -24.8662);
                N+_N2   (0 0 1.9000 -13.1144);
                N+_O2   (0 0 1.9000 -13.1357);
                N+_N    (0 0.0033 1.5572 -11.1616);
                N+_O    (0 0 1.9000 -13.0028);
                N+_NO   (0 0 1.8999 -13.1254);
                N+_NO+  (0 0 3.5000 -30.0951);
                N+_e-   (0 0 3.5000 -25.2128);
                N+_N+   (0 0 3.5000 -29.9401);
                O+_N2   (0 0 1.9000 -13.1578);
                O+_O2   (0 0 1.9000 -13.1810);
                O+_N    (0 0 1.9000 -13.0028);
                O+_O    (0 0.0034 1.5572 -11.1729);
                O+_NO   (0 0 1.9000 -13.1701);
                O+_NO+  (0 0 3.5000 -30.1395);
                O+_e-   (0 0 3.5000 -25.2128);
                O+_N+   (0 0 3.5000 -29.9722);
                O+_O+   (0 0 3.5000 -30.0066);
                N2+_N2  (0 0 1.9000 -13.3173);
                N2+_O2  (0 0 1.9000 -13.3495);
                N2+_N   (0 0 1.9000 -13.1144);
                N2+_O   (0 0 1.9000 -13.1578);
                N2+_NO  (0 0 1.9000 -13.3343);
                N2+_NO+ (0 0 3.5000 -30.3036);
                N2+_e-  (0 0 3.5000 -25.2128);
                N2+_N+  (0 0 3.5000 -30.0839);
                N2+_O+  (0 0 3.5000 -30.1273);
                N2+_N2+ (0 0 3.5000 -30.2867);
                O2+_N2  (0 0 1.9 -13.3173);
                O2+_O2  (0 0 1.9 -13.3495);
                O2+_N   (0 0 1.9 -13.1144);
                O2+_O   (0 0 1.9 -13.1578);
                O2+_NO  (0 0 1.9 -13.3343);
                O2+_NO+ (0 0 3.5000 -30.3036);
                O2+_e-  (0 0 3.5000 -25.2128);
                O2+_N+  (0 0 3.5000 -30.0839);
                O2+_O+  (0 0 3.5000 -30.1273);
                O2+_N2+ (0 0 3.5000 -30.2867);
                O2+_O2+ (0 0 3.5000 -30.2867);
            }
        }
        
        // NASA-TM-101528 (Gupta, Yos, Thompson: Feb. 1989)
        // Document ID: 19890011822
        // A review of reaction rates and thermodynamic and transport 
        // properties for the 11-species air model for chemical and thermal
        // nonequilibrium calculations to 30000 K
        Gupta1989O
        {
            // Table VII
            Omega11
            {
                N2_N2   (0 -0.0112 -0.1182 4.8464);
                N2_O2   (0 -0.0465 0.5729 1.6185);
                O2_O2   (0 -0.0410 0.4977 1.8302);
                N2_N    (0 -0.0194 0.0119 4.1055);
                O2_N    (0 -0.0179 0.0152 3.9996);
                N_N     (0 -0.0033 -0.0572 5.0452);
                N2_O    (0 -0.0139 -0.0825 4.5785);
                O2_O    (0 -0.0226 0.1300 3.3363);
                N_O     (0 0.0048 -0.4195 5.7774);
                O_O     (0 -0.0034 -0.0572 4.9901);
                N2_NO   (0 -0.0291 0.2324 3.2082);
                O2_NO   (0 -0.0438 0.5352 1.7252);
                NO_N    (0 -0.0185 0.0118 4.0590);
                NO_O    (0 -0.0179 0.0152 3.9996);
                NO_NO   (0 -0.0364 0.3825 2.4718);
                
                NO+_N2	(0 0 -0.4000 6.8543);
                NO+_O2  (0 0 -0.4000 6.8543);
                NO+_N		(0 0 -0.4000 6.8543);
                NO+_O		(0 0 -0.4000 6.8543);
                NO+_NO  (0 -0.0047 -0.0551 4.8737);
                NO+_NO+	(0.1251 -3.5134 31.2277 -80.6515);
                e-_N2		(0.1147 -2.8945 24.5080 -67.3691);
                e-_O2   (0.0241 -0.3467 1.3887 -0.0110); // T = 1000-9000	K	
              //e-_O2		(0.0025 -0.0742 0.7235 -0.2116); // T = 9000-30000 K
                e-_N		(0 0 0 1.6094);
                e-_O    (0.0164 -0.2431 1.1231 -1.5561); // T = 1000-9000	K	
              //e-_O		(-0.2027 5.6428 -51.5646 155.6091); // T = 9000-30,000 K
                e-_NO   (-0.2202 5.2265 -40.5659 104.7126); // T = 1000-8000 K		
              //e-_NO		(-0.2871 8.3757 -81.3787 265.6292); // T = 8000-30,000 K
                e-_NO+	(0.1251 -3.5134 31.2277 -80.6515);
                e-_e-		(0.1251 -3.5134 31.2277 -80.6515);
                N+_N2		(0 0 -0.4000 6.8543);
                N+_O2		(0 0 -0.4000 6.8543);
                N+_N		(0 -0.0033 -0.0572 5.0452);
                N+_O		(0 0 -0.4000 6.8543);
                N+_NO		(0 0 -0.4000 6.8543);
                N+_NO+	(0.1251 -3.5134 31.2277 -80.6515);
                N+_e-		(0.1251 -3.5134 31.2277 -80.6515);
                N+_N+		(0.1251 -3.5134 31.2277 -80.6515);
                O+_N2		(0 0 -0.4000 6.8543);
                O+_O2		(0 0 -0.4000 6.8543);
                O+_N		(0 0 -0.4000 6.8543);
                O+_O		(0 -0.0034 -0.0572 4.9901);
                O+_NO		(0 0 -0.4000 6.8543);
                O+_NO+	(0.1251 -3.5134 31.2277 -80.6515);
                O+_e-		(0.1251 -3.5134 31.2277 -80.6515);
                O+_N+		(0.1251 -3.5134 31.2277 -80.6515);
                O+_O+		(0.1251 -3.5134 31.2277 -80.6515);
                N2+_N2	(0 0 -0.4000 6.8543);
                N2+_O2	(0 0 -0.4000 6.8543);
                N2+_N		(0 0 -0.4000 6.8543);
                N2+_O		(0 0 -0.4000 6.8543);
                N2+_NO	(0 0 -0.4000 6.8543);
                N2+_NO+	(0.1251 -3.5134 31.2277 -80.6515);
                N2+_e-	(0.1251 -3.5134 31.2277 -80.6515);
                N2+_N+	(0.125 -3.5134 31.2277 -80.6515);
                N2+_O+	(0.1251 -3.5134 31.2277 -80.6515);
                N2+_N2+	(0.1251 -3.5134 31.2277 -80.6515);
                O2+_N2	(0 0 -0.4000 6.8543);
                O2+_O2	(0 0 -0.4000 6.8543);
                O2+_N		(0 0 -0.4000 6.8543);
                O2+_O		(0 0 -0.4000 6.8543);
                O2+_NO	(0 0 -0.4000 6.8543);
                O2+_NO+	(0.1251 -3.5134 31.2277 -80.6515);
                O2+_e-	(0.1251 -3.5134 31.2277 -80.6515);
                O2+_N+	(0.1251 -3.5134 31.2277 -80.6515);
                O2+_O+	(0.1251 -3.5134 31.2277 -80.6515);
                O2+_N2+	(0.1251 -3.5134 31.2277 -80.6515);
                O2+_O2+	(0.1251 -3.5134 31.2277 -80.6515);
            }
        
            // Table VIII
            Omega22
            {
                N2_N2		(0 -0.0203 0.0683 4.0900);
                N2_O2		(0 -0.0558 0.7590 0.8955);
                O2_O2		(0 -0.0485 0.6475 1.2607);
                N2_N		(0 -0.0190 0.0239 4.1782);
                O2_N		(0 -0.0203 0.0730 3.8818);
                N_N		  (0 -0.0118 -0.0960 4.3252);
                N2_O		(0 -0.0169 -0.0143 4.4195);
                O2_O		(0 -0.0247 0.1783 3.2517);
                N_O		  (0 0.0065 -0.4467 6.0426);
                O_O		  (0 -0.0207 0.0780 3.5658);
                N2_NO		(0 -0.0385 0.4226 2.4507);
                O2_NO		(0 -0.0522 0.7045 1.0738);
                NO_N		(0 -0.0196 0.0478 4.0321);
                NO_O		(0 -0.0203 0.0730 3.8818);
                NO_NO		(0 -0.0453 0.5624 1.7669);
                NO+_N2	(0 0 -0.4000 6.7760);
                NO+_O2	(0 0 -0.4000 6.7760);
                NO+_N		(0 0 -0.4000 6.7760);
                NO+_O		(0 0 -0.4000 6.7760);
                NO+_NO	(0 0 -0.4000 6.7760);
                NO+_NO+	(0.1251 -3.5135 31.2281 -80.1163);
                e-_N2		(0.1147 -2.8945 24.5080 -67.3691);
                e-_O2		(0.0241 -0.3467 1.3887 -0.0110); // T = 1000-9000	K	
              //e-_O2		(0.0025 -0.0742 0.7235 -0.2116); // T = 9000-30000 K
                e-_N		(0 0 0 1.6094);
                e-_O		(0.0164 -0.2431 1.1231 -1.5561); // T = 1000-9000	K	
              //e-_O		(-0.2027 5.6428 -51.5646 155.6091); // T = 9000-30,000 K
                e-_NO		(-0.2202 5.2265 -40.5659 104.7126); // T = 1000-8000 K		
              //e-_NO		(-0.2871 8.3757 -81.3787 265.6292); // T = 8000-30,000 K
                e-_NO+	(0.1251 -3.5134 31.2274 -80.1684);
                e-_e-		(0.1251 -3.5134 31.2274 -80.1684);
                N+_N2		(0 0 -0.4000 6.7760);
                N+_O2		(0 0 -0.4000 6.7760);
                N+_N		(0 0 -0.4146 6.9078);
                N+_O		(0 0 -0.4000 6.7760);
                N+_NO		(0 0 -0.4000 6.7760);
                N+_NO+	(0.1251 -3.5135 31.2281 -80.1163);
                N+_e-		(0.1251 -3.5134 31.2274 -80.1684);
                N+_N+		(0.1251 -3.5135 31.2281 -80.1163);
                O+_N2		(0 0 -0.4000 6.7760);
                O+_O2		(0 0 -0.4000 6.7760);
                O+_N		(0 0 -0.4000 6.7760);
                O+_O		(0 0 -0.4235 6.7787);
                O+_NO		(0 0 -0.4000 6.7760);
                O+_NO+	(0.1251 -3.5135 31.2281 -80.1163);
                O+_e-		(0.1251 -3.5134 31.2274 -80.1684);
                O+_N+		(0.1251 -3.5135 31.2281 -80.1163);
                O+_O+		(0.1251 -3.5135 31.2281 -80.1163);
                N2+_N2	(0 0 -0.4000 6.7760);
                N2+_O2	(0 0 -0.4000 6.7760);
                N2+_N		(0 0 -0.4000 6.7760);
                N2+_O		(0 0 -0.4000 6.7760);
                N2+_NO	(0 0 -0.4000 6.7760);
                N2+_NO+	(0.1251 -3.5135 31.2281 -80.1163);
                N2+_e-	(0.1251 -3.5134 31.2274 -80.1684);
                N2+_N+	(0.125 -3.5135 31.2281 -80.1163);
                N2+_O+	(0.1251 -3.5135 31.2281 -80.1163);
                N2+_N2+	(0.1251 -3.5135 31.2281 -80.1163);
                O2+_N2	(0 0 -0.4000 6.7760);
                O2+_O2	(0 0 -0.4000 6.7760);
                O2+_N		(0 0 -0.4000 6.7760);
                O2+_O		(0 0 -0.4000 6.7760);
                O2+_NO	(0 0 -0.4000 6.7760);
                O2+_NO+	(0.1251 -3.5135 31.2281 -80.1163);
                O2+_e-	(0.1251 -3.5135 31.2281 -80.1163);
                O2+_N+	(0.1251 -3.5135 31.2281 -80.1163);
                O2+_O+	(0.1251 -3.5135 31.2281 -80.1163);
                O2+_N2+	(0.1251 -3.5135 31.2281 -80.1163);
                O2+_O2+	(0.1251 -3.5135 31.2281 -80.1163);
            }
        }
    
        // NASA-RP-1232 (Gupta, Yos, Thompson, Lee: Aug. 1990)
        // Document ID: 19900017748
        // A review of reaction rates and thermodynamic and transport 
        // properties of an 11-species air model for chemical and thermal
        // nonequilibrium calculations to 30000 K
        Gupta1990O
        {
            // Table VIII
            Omega11
            {
                N2_N2   (0 -0.0112 -0.1182 4.8464);
                N2_O2   (0 -0.0465 0.5729 1.6185);
                O2_O2   (0 -0.0410 0.4977 1.8302);
                N2_N    (0 -0.0194 0.0119 4.1055);
                O2_N    (0 -0.0179 0.0152 3.9996);
                N_N     (0 -0.0033 -0.0572 5.0452);
                N2_O    (0 -0.0139 -0.0825 4.5785);
                O2_O    (0 -0.0226 0.1300 3.3363);
                N_O     (0 0.0048 -0.4195 5.7774);
                O_O     (0 -0.0034 -0.0572 4.9901);
                N2_NO   (0 -0.0291 0.2324 3.2082);
                O2_NO   (0 -0.0438 0.5352 1.7252);
                NO_N    (0 -0.0185 0.0118 4.0590);
                NO_O    (0 -0.0179 0.0152 3.9996);
                NO_NO   (0 -0.0364 0.3825 2.4718);
                
                NO+_N2	(0 0 -0.4000 6.8543);
                NO+_O2  (0 0 -0.4000 6.8543);
                NO+_N		(0 0 -0.4000 6.8543);
                NO+_O		(0 0 -0.4000 6.8543);
                NO+_NO  (0 -0.0047 -0.0551 4.8737);
                NO+_NO+	(0 0 -2.0000 23.8237);
                e-_N2		(0.1147 -2.8945 24.5080 -67.3691);
                e-_O2   (0.0241 -0.3467 1.3887 -0.0110); // T = 1000-9000	K	
              //e-_O2		(0.0025 -0.0742 0.7235 -0.2116); // T = 9000-30000 K
                e-_N		(0 0 0 1.6094);
                e-_O    (0.0164 -0.2431 1.1231 -1.5561); // T = 1000-9000	K	
              //e-_O		(-0.2027 5.6428 -51.5646 155.6091); // T = 9000-30,000 K
                e-_NO   (-0.2202 5.2265 -40.5659 104.7126); // T = 1000-8000 K		
              //e-_NO		(-0.2871 8.3757 -81.3787 265.6292); // T = 8000-30,000 K
                e-_NO+	(0 0 -2.0000 23.8237);
                e-_e-		(0 0 -2.0000 23.8237);
                N+_N2		(0 0 -0.4000 6.8543);
                N+_O2		(0 0 -0.4000 6.8543);
                N+_N		(0 -0.0033 -0.0572 5.0452);
                N+_O		(0 0 -0.4000 6.8543);
                N+_NO		(0 0 -0.4000 6.8543);
                N+_NO+	(0 0 -2.0000 23.8237);
                N+_e-		(0 0 -2.0000 23.8237);
                N+_N+		(0 0 -2.0000 23.8237);
                O+_N2		(0 0 -0.4000 6.8543);
                O+_O2		(0 0 -0.4000 6.8543);
                O+_N		(0 0 -0.4000 6.8543);
                O+_O		(0 -0.0034 -0.0572 4.9901);
                O+_NO		(0 0 -0.4000 6.8543);
                O+_NO+	(0 0 -2.0000 23.8237);
                O+_e-		(0 0 -2.0000 23.8237);
                O+_N+		(0 0 -2.0000 23.8237);
                O+_O+		(0 0 -2.0000 23.8237);
                N2+_N2	(0 0 -0.4000 6.8543);
                N2+_O2	(0 0 -0.4000 6.8543);
                N2+_N		(0 0 -0.4000 6.8543);
                N2+_O		(0 0 -0.4000 6.8543);
                N2+_NO	(0 0 -0.4000 6.8543);
                N2+_NO+	(0 0 -2.0000 23.8237);
                N2+_e-	(0 0 -2.0000 23.8237);
                N2+_N+	(0 0 -2.0000 23.8237);
                N2+_O+	(0 0 -2.0000 23.8237);
                N2+_N2+	(0 0 -2.0000 23.8237);
                O2+_N2	(0 0 -0.4000 6.8543);
                O2+_O2	(0 0 -0.4000 6.8543);
                O2+_N		(0 0 -0.4000 6.8543);
                O2+_O		(0 0 -0.4000 6.8543);
                O2+_NO	(0 0 -0.4000 6.8543);
                O2+_NO+	(0 0 -2.0000 23.8237);
                O2+_e-	(0 0 -2.0000 23.8237);
                O2+_N+	(0 0 -2.0000 23.8237);
                O2+_O+	(0 0 -2.0000 23.8237);
                O2+_N2+	(0 0 -2.0000 23.8237);
                O2+_O2+	(0 0 -2.0000 23.8237);
            }
        
            // Table IX
            Omega22
            {
                N2_N2		(0 -0.0203 0.0683 4.0900);
                N2_O2		(0 -0.0558 0.7590 0.8955);
                O2_O2		(0 -0.0485 0.6475 1.2607);
                N2_N		(0 -0.0190 0.0239 4.1782);
                O2_N		(0 -0.0203 0.0730 3.8818);
                N_N		  (0 -0.0118 -0.0960 4.3252);
                N2_O		(0 -0.0169 -0.0143 4.4195);
                O2_O		(0 -0.0247 0.1783 3.2517);
                N_O		  (0 0.0065 -0.4467 6.0426);
                O_O		  (0 -0.0207 0.0780 3.5658);
                N2_NO		(0 -0.0385 0.4226 2.4507);
                O2_NO		(0 -0.0522 0.7045 1.0738);
                NO_N		(0 -0.0196 0.0478 4.0321);
                NO_O		(0 -0.0203 0.0730 3.8818);
                NO_NO		(0 -0.0453 0.5624 1.7669);
                NO+_N2	(0 0 -0.4000 6.7760);
                NO+_O2	(0 0 -0.4000 6.7760);
                NO+_N		(0 0 -0.4000 6.7760);
                NO+_O		(0 0 -0.4000 6.7760);
                NO+_NO	(0 0 -0.4000 6.7760);
                NO+_NO+	(0 0 -2.0000 24.3602);
                e-_N2		(0.1147 -2.8945 24.5080 -67.3691);
                e-_O2		(0.0241 -0.3467 1.3887 -0.0110); // T = 1000-9000	K	
              //e-_O2		(0.0025 -0.0742 0.7235 -0.2116); // T = 9000-30000 K
                e-_N		(0 0 0 1.6094);
                e-_O		(0.0164 -0.2431 1.1231 -1.5561); // T = 1000-9000	K	
              //e-_O		(-0.2027 5.6428 -51.5646 155.6091); // T = 9000-30,000 K
                e-_NO		(-0.2202 5.2265 -40.5659 104.7126); // T = 1000-8000 K		
              //e-_NO		(-0.2871 8.3757 -81.3787 265.6292); // T = 8000-30,000 K
                e-_NO+	(0 0 -2.0000 24.3602);
                e-_e-		(0 0 -2.0000 24.3602);
                N+_N2		(0 0 -0.4000 6.7760);
                N+_O2		(0 0 -0.4000 6.7760);
                N+_N		(0 0 -0.4146 6.9078);
                N+_O		(0 0 -0.4000 6.7760);
                N+_NO		(0 0 -0.4000 6.7760);
                N+_NO+	(0 0 -2.0000 24.3602);
                N+_e-		(0 0 -2.0000 24.3061);
                N+_N+		(0 0 -2.0000 24.3602);
                O+_N2		(0 0 -0.4000 6.7760);
                O+_O2		(0 0 -0.4000 6.7760);
                O+_N		(0 0 -0.4000 6.7760);
                O+_O		(0 0 -0.4235 6.7787);
                O+_NO		(0 0 -0.4000 6.7760);
                O+_NO+	(0 0 -2.0000 24.3602);
                O+_e-		(0 0 -2.0000 24.3061);
                O+_N+		(0 0 -2.0000 24.3602);
                O+_O+		(0 0 -2.0000 24.3602);
                N2+_N2	(0 0 -0.4000 6.7760);
                N2+_O2	(0 0 -0.4000 6.7760);
                N2+_N		(0 0 -0.4000 6.7760);
                N2+_O		(0 0 -0.4000 6.7760);
                N2+_NO	(0 0 -0.4000 6.7760);
                N2+_NO+	(0 0 -2.0000 24.3602);
                N2+_e-	(0 0 -2.0000 24.3061);
                N2+_N+	(0 0 -2.0000 24.3602);
                N2+_O+	(0 0 -2.0000 24.3602);
                N2+_N2+	(0 0 -2.0000 24.3602);
                O2+_N2	(0 0 -0.4000 6.7760);
                O2+_O2	(0 0 -0.4000 6.7760);
                O2+_N		(0 0 -0.4000 6.7760);
                O2+_O		(0 0 -0.4000 6.7760);
                O2+_NO	(0 0 -0.4000 6.7760);
                O2+_NO+	(0 0 -2.0000 24.3602);
                O2+_e-	(0 0 -2.0000 24.3061);
                O2+_N+	(0 0 -2.0000 24.3602);
                O2+_O+	(0 0 -2.0000 24.3602);
                O2+_N2+	(0 0 -2.0000 24.3602);
                O2+_O2+	(0 0 -2.0000 24.3602);
            }
        }
        
        // DOI: 102514/1.16713 (Wright, Bose, Palmer, Levin: Aug. 2005)
        // Recommended Collision Integrals for Transport Property Computations,
        // Part 1: Air Species
        //
        // As cited by:
        // AIAA 2007-605 (Hash et al.: Jan. 2007)
        // FIRE II Calculations for Hypersonic nonequilibrium Aerothermo-
        // dynamics Code verification: DPLR, LAURA, and US3D
        Wright2005O
        {
            // Hash et al. 2007, Table V
            Omega11
            {
                N2_N2   (-6.0614558e-03 1.2689102e-01 -1.0616948 8.0955466e02);
                N2_O2   (-3.7959091e-03 9.5708295e-02 -1.0070611 8.9392313e02);
                O2_O2   (-8.0682650e-04 1.6602480e-02 -3.1472774e-01 1.4116458e02);
                N2_N    (-1.0796249e-02 2.2656509e-01 -1.7910602 4.0455218e03);
                O2_N    (-1.1453028e-03 1.2654140e-02 -2.2435218e-01 7.7201588e01);
                N_N     (-9.6083779e-03 2.0938971e-01 -1.7386904 3.3587983e03);
                N2_O    (-2.7244269e-03 6.9587171e-02 -7.9538667e-01 4.0673730e02);
                O2_O    (-4.8405803e-03 1.0297688e-01 -9.6876576e-01 6.1629812e02);
                N_O     (-7.8147689e-03 1.6792705e-01 -1.4308628 1.6628859e03);
                O_O     (-6.4040535e-03 1.4629949e-01 -1.3892121 2.0903441e03);
                N2_NO   (-1.9295666e-03 2.7995735e-02 -3.1588514e-01 1.2880734e02);
                O2_NO   (-6.4433840e-04 8.5378580e-03 -2.3225102e-01 1.1371608e02);
                NO_N    (-1.5770918e-03 1.9578381e-02 -2.7873624e-01 9.9547944e01);
                NO_O    (-1.0885815e-03 1.1883688e-02 -2.1844909e-01 7.5512560e01);
                NO_NO   (0.0000000 -1.1056066e-02 -5.9216250e-02 7.2542367e01);
                
                N2_NO+  (0.0000000 9.1205839e-02 -1.8728231 2.4432020e05);
                O2_NO+  (-3.7822765e-03 1.7967016e-01 -2.5409098 1.1840435e06);
                N_NO+   (-1.9605234e-02 5.5570872e-01 -5.4285702 1.3574446e09);
                O_NO+   (-1.6409054e-02 4.6352852e-01 -4.5479735 7.4250671e07);
                NO_NO+  (-8.1158474e-03 2.1474280e-01 -2.0148450 6.2986385e04);
                e-_N2   (-1.0525124e-02 1.3498950e-01 1.2524805e-01 1.5066506e-01);
                e-_O2   (2.3527001e-02 -6.9632323e-01 6.8035475 1.8335509e-09);
                e-_N    (0.0000000 1.6554247e-01 -3.4986344 5.9268038e08);
                e-_O    (9.9865506e-03 -2.7407431e-01 2.6561032 4.3080676e-04);
                e-_NO   (1.0414818e-01 -2.8369126 2.5323135e01 7.7138358e-32);
                N2_N+   (-1.0687805e-02 2.4479697e-01 -2.3192863e00 1.0689229e05);
                O2_N+   (0.0000000e00 8.7745537e-02 -1.8347158e00 1.9830120e05);
                N_N+    (-4.0078980e-03 1.0327487e-01 -9.9473323e-01 2.8178290e03);
                O_N+    (-1.5767256e-02 3.5405830e-01 -3.0686783e00 4.6336779e05);
                NO_N+   (0.0000000e00 8.6531037e-02 -1.8117931e00 1.8621272e05);
                N2_O+   (1.0352091e-02 -1.5733723e-01 2.9326150e-02 2.1003616e03);
                O2_O+   (0.0000000e00 9.3559978e-02 -1.9842999e00 4.3097490e05);
                N_O+    (-2.4288224e-02 5.6305072e-01 -4.6849679e00 2.7303024e07);
                O_O+    (-3.8347988e-03 9.9930498e-02 -9.6288891e-01 1.9669897e03);
                NO_O+   (8.3856973e-03 -1.0972656e-01 -3.3896281e-01 5.2004690e03);
                N2_N2+  (-2.9123716e-03 9.6850678e-02 -1.1416540e00 7.9252169e03);
                O2_N2+  (-4.0893007e-03 1.7795266e-01 -2.3800543e00 5.1949298e05);
                N_N2+   (-1.4501284e-02 4.1085338e-01 -4.0115094e00 1.5735451e07);
                O_N2+   (-1.6923472e-02 4.6067692e-01 -4.3294966e00 2.5538927e07);
                NO_N2+  (-9.2292933e-03 2.9813226e-01 -3.2899475e00 4.9147046e06);
                N2_O2+  (1.2405624e-02 -2.0452111e-01 3.5478475e-01 1.0778357e03);
                O2_O2+  (-8.9520932e-03 2.2749642e-01 -2.0758341e00 6.7674419e04);
                N_O2+   (0.0000000e00 8.3065769e-02 -1.7501512e00 1.0846799e05);
                O_O2+   (-2.9417970e-03 1.5129273e-01 -2.2497964e00 2.9325215e05);
                NO_O2+  (1.3731123e-02 -2.3920299e-01 6.7093226e-01 4.0068731e02);
            }
        
            // Hash et al. 2007, Table VI
            Omega22
            {
                N2_N2   (-7.6303990e-03 1.6878089e-01 -1.4004234e00 2.1427708e03);
                N2_O2   (-8.0457321e-03 1.9228905e-01 -1.7102854e00 5.2213857e03);
                O2_O2   (-6.2931612e-03 1.4624645e-01 -1.3006927e00 1.8066892e03);
                N2_N    (-8.3493693e-03 1.7808911e-01 -1.4466155e00 1.9324210e03);