/*--------------------------------*- C++ -*----------------------------------*\
| =========                 |                                                 |
| \\      /  F ield         | OpenFOAM: The Open Source CFD Toolbox           |
|  \\    /   O peration     | Version:  combo                                 |
|   \\  /    A nd           | Web:      www.OpenFOAM.org                      |
|    \\/     M anipulation  |                                                 |
\*---------------------------------------------------------------------------*/
FoamFile
{
    version     2.0;
    format      ascii;
    class       volScalarField;
    location    "0";
    object      k;
}
// * * * * * * * * * * * * * * * * * * * * * * * * * * * * * * * * * * * * * //

dimensions      [0 2 -2 0 0 0 0];

internalField   uniform 4805.34;

boundaryField
{
    FrontBack
    {
        type            empty;
    }
    OF_inlet_00
    {
        type            fixedValue;
        value           uniform 4805.34;
    }
    OF_outlet_00
    {
        type            zeroGradient;
    }
    OF_wall_00
    {
        type            fixedValue;
        value           uniform 1e-15;
    }
    OF_symmetry_00
    {
        type            symmetry;
    }
}


// ************************************************************************* //
