/*--------------------------------*- C++ -*----------------------------------*\
| =========                 |                                                 |
| \\      /  F ield         | OpenFOAM: The Open Source CFD Toolbox           |
|  \\    /   O peration     | Version:  combo                                 |
|   \\  /    A nd           | Web:      www.OpenFOAM.org                      |
|    \\/     M anipulation  |                                                 |
\*---------------------------------------------------------------------------*/
FoamFile
{
    version     2.0;
    format      binary;
    class       volVectorField;
    location    "0";
    object      U;
}
// * * * * * * * * * * * * * * * * * * * * * * * * * * * * * * * * * * * * * //

dimensions      [0 1 -1 0 0 0 0];

internalField   uniform (1698 0 0);

boundaryField
{
    FrontBack
    {
        type            empty;
    }
    OF_inlet_00
    {
        type            fixedValue;
        value           uniform (2830 0 0);
    }
    OF_outlet_00
    {
        type            zeroGradient;
    }
    OF_wall_00
    {
        type            fixedValue;
        value           uniform (0 0 0);
    }
    OF_symmetry_00
    {
        type            symmetry;
    }
}


// ************************************************************************* //
