/*--------------------------------*- C++ -*----------------------------------*\
| =========                 |                                                 |
| \\      /  F ield         | OpenFOAM: The Open Source CFD Toolbox           |
|  \\    /   O peration     | Version:  v1706                                 |
|   \\  /    A nd           | Web:      www.OpenFOAM.com                      |
|    \\/     M anipulation  |                                                 |
\*---------------------------------------------------------------------------*/
FoamFile
{
    version     2.0;
    format      ascii;
    class       scalarField;
    location    "0/lagrangian/dsmc";
    object      radialWeight;
}
// * * * * * * * * * * * * * * * * * * * * * * * * * * * * * * * * * * * * * //


130317
(
12.1
12.1
12.1
12.1
12.1
12.1
12.1
12.1
12.1
12.1
12.1
12.1
12.1
12.1
12.1
12.1
12.1
12.1
12.1
12.1
12.1
12.1
12.1
12.1
12.1
12.1
12.1
12.1
12.1
12.1
12.1
12.1
12.1
12.1
12.1
12.1
12.1
12.1
12.1
12.1
12.1
12.1
12.1
12.1
12.1
12.1
12.1
12.1
12.1
12.1
12.1
12.1
12.1
12.1
12.1
12.1
12.1
12.1
12.1
12.1
12.1
12.1
12.1
12.1
12.1
12.1
12.1
12.1
12.1
12.1
12.1
12.1
12.1
12.1
12.1
12.1
12.1
12.1
12.1
12.1
12.1
12.1
12.1
12.1
12.1
12.1
12.1
12.1
12.1
12.1
12.1
12.1
12.1
12.1
12.1
12.1
12.1
12.1
12.1
12.1
12.1
12.1
12.1
12.1
12.1
12.1
12.1
12.1
12.1
12.1
12.1
12.1
12.1
12.1
12.1
12.1
12.1
12.1
12.1
12.1
12.1
12.1
12.1
12.1
12.1
12.1
12.1
12.1
12.1
12.1
12.1
12.1
12.1
12.1
12.1
12.1
12.1
12.1
12.1
12.1
12.1
12.1
12.1
12.1
12.1
12.1
12.1
12.1
12.1
12.1
12.1
12.1
12.1
12.1
12.1
12.1
12.1
12.1
12.1
12.1
12.1
12.1
12.1
12.1
12.1
12.1
12.1
12.1
12.1
12.1
12.1
12.1
12.1
12.1
12.1
12.1
12.1
12.1
12.1
12.1
12.1
12.1
12.1
12.1
12.1
12.1
12.1
12.1
12.1
12.1
12.1
12.1
12.1
12.1
12.1
12.1
12.1
12.1
12.1
12.1
12.1
12.1
12.1
12.1
12.1
12.1
12.1
12.1
12.1
12.1
12.1
12.1
12.1
12.1
12.1
12.1
12.1
12.1
12.1
12.1
12.1
12.1
12.1
12.1
12.1
12.1
12.1
12.1
12.1
12.1
12.1
12.1
12.1
12.1
12.1
12.1
12.1
12.1
12.1
12.1
12.1
12.1
12.1
12.1
12.1
12.1
12.1
12.1
12.1
12.1
12.1
12.1
12.1
12.1
12.1
12.1
12.1
12.1
12.1
12.1
12.1
12.1
12.1
12.1
12.1
12.1
12.1
12.1
12.1
12.1
12.1
12.1
12.1
12.1
12.1
12.1
12.1
12.1
12.1
12.1
12.1
12.1
12.1
12.1
12.1
12.1
12.1
12.1
12.1
12.1
12.1
12.1
12.1
12.1
12.1
12.1
12.1
12.1
12.1
12.1
12.1
12.1
12.1
12.1
12.1
12.1
12.1
12.1
12.1
12.1
12.1
12.1
12.1
12.1
12.1
12.1
12.1
12.1
12.1
12.1
12.1
12.1
12.1
12.1
12.1
12.1
12.1
12.1
12.1
12.1
12.1
12.1
12.1
12.1
12.1
12.1
12.1
12.1
12.1
12.1
12.1
12.1
12.1
12.1
12.1
12.1
12.1
12.1
12.1
12.1
12.1
12.1
12.1
12.1
12.1
12.1
12.1
12.1
12.1
12.1
12.1
12.1
12.1
12.1
12.1
12.1
12.1
12.1
12.1
12.1
12.1
12.1
12.1
12.1
12.1
12.1
12.1
12.1
12.1
12.1
12.1
12.1
12.1
12.1
12.1
12.1
12.1
12.1
12.1
12.1
12.1
12.1
12.1
12.1
12.1
12.1
12.1
12.1
12.1
12.1
12.1
12.1
12.1
12.1
12.1
12.1
12.1
12.1
12.1
12.1
12.1
12.1
12.1
12.1
12.1
12.1
12.1
12.1
12.1
12.1
12.1
12.1
12.1
12.1
12.1
12.1
12.1
12.1
12.1
12.1
12.1
12.1
12.1
12.1
12.1
12.1
12.1
12.1
12.1
12.1
12.1
12.1
12.1
12.1
12.1
12.1
12.1
12.1
12.1
12.1
12.1
12.1
12.1
12.1
12.1
12.1
12.1
12.1
12.1
12.1
12.1
12.1
12.1
12.1
12.1
12.1
12.1
12.1
12.1
12.1
12.1
12.1
12.1
12.1
12.1
12.1
12.1
12.1
12.1
12.1
12.1
12.1
12.1
12.1
12.1
12.1
12.1
12.1
12.1
12.1
12.1
12.1
12.1
12.1
12.1
12.1
12.1
12.1
12.1
12.1
12.1
12.1
12.1
12.1
12.1
12.1
12.1
12.1
12.1
12.1
12.1
12.1
12.1
12.1
12.1
12.1
12.1
12.1
12.1
12.1
12.1
12.1
12.1
12.1
12.1
12.1
12.1
12.1
12.1
12.1
12.1
12.1
12.1
12.1
12.1
12.1
12.1
12.1
12.1
12.1
12.1
12.1
12.1
12.1
12.1
12.1
12.1
12.1
12.1
12.1
12.1
12.1
12.1
12.1
12.1
12.1
12.1
12.1
12.1
12.1
12.1
12.1
12.1
12.1
12.1
12.1
12.1
12.1
12.1
12.1
12.1
12.1
12.1
12.1
12.1
12.1
12.1
12.1
12.1
12.1
12.1
12.1
12.1
12.1
12.1
12.1
12.1
12.1
12.1
12.1
12.1
12.1
12.1
12.1
12.1
12.1
12.1
12.1
12.1
12.1
12.1
12.1
12.1
12.1
12.1
12.1
12.1
12.1
12.1
12.1
12.1
12.1
12.1
12.1
12.1
12.1
12.1
12.1
12.1
12.1
12.1
12.1
12.1
12.1
12.1
12.1
12.1
12.1
12.1
12.1
12.1
12.1
12.1
12.1
12.1
12.1
12.1
12.1
12.1
12.1
12.1
12.1
12.1
12.1
12.1
12.1
12.1
12.1
12.1
12.1
12.1
12.1
12.1
12.1
12.1
12.1
12.1
12.1
12.1
12.1
12.1
12.1
12.1
12.1
12.1
12.1
12.1
12.1
12.1
12.1
12.1
12.1
12.1
12.1
12.1
12.1
12.1
12.1
12.1
12.1
12.1
12.1
12.1
12.1
12.1
12.1
12.1
12.1
12.1
12.1
12.1
12.1
12.1
12.1
12.1
12.1
12.1
12.1
12.1
12.1
12.1
12.1
12.1
12.1
12.1
12.1
12.1
12.1
12.1
12.1
12.1
12.1
12.1
12.1
12.1
12.1
12.1
12.1
12.1
12.1
12.1
12.1
12.1
12.1
12.1
12.1
12.1
12.1
12.1
12.1
12.1
12.1
12.1
12.1
12.1
12.1
12.1
12.1
12.1
12.1
12.1
12.1
12.1
12.1
12.1
12.1
12.1
12.1
12.1
12.1
12.1
12.1
12.1
12.1
12.1
12.1
12.1
12.1
12.1
12.1
12.1
12.1
12.1
12.1
12.1
12.1
12.1
12.1
12.1
12.1
12.1
12.1
12.1
12.1
12.1
12.1
12.1
12.1
12.1
12.1
12.1
12.1
12.1
12.1
12.1
12.1
12.1
12.1
12.1
12.1
12.1
12.1
12.1
12.1
12.1
12.1
12.1
12.1
12.1
12.1
12.1
12.1
12.1
12.1
12.1
12.1
12.1
12.1
12.1
12.1
12.1
12.1
12.1
12.1
12.1
12.1
12.1
12.1
12.1
12.1
12.1
12.1
12.1
12.1
12.1
12.1
12.1
12.1
12.1
12.1
12.1
12.1
12.1
12.1
12.1
12.1
12.1
12.1
12.1
12.1
12.1
12.1
12.1
12.1
12.1
12.1
12.1
12.1
12.1
12.1
12.1
12.1
12.1
12.1
12.1
12.1
12.1
12.1
12.1
12.1
12.1
12.1
12.1
12.1
12.1
12.1
12.1
12.1
12.1
12.1
12.1
12.1
12.1
12.1
12.1
12.1
12.1
12.1
12.1
12.1
12.1
12.1
12.1
12.1
12.1
12.1
12.1
12.1
12.1
12.1
12.1
12.1
12.1
12.1
12.1
12.1
12.1
12.1
12.1
12.1
12.1
12.1
12.1
12.1
12.1
12.1
12.1
12.1
12.1
26.9
26.9
26.9
26.9
26.9
26.9
26.9
26.9
26.9
26.9
26.9
26.9
26.9
26.9
26.9
26.9
26.9
26.9
26.9
26.9
26.9
26.9
26.9
26.9
26.9
26.9
26.9
26.9
26.9
26.9
26.9
26.9
26.9
26.9
26.9
26.9
26.9
26.9
26.9
26.9
26.9
26.9
26.9
26.9
26.9
26.9
26.9
26.9
26.9
26.9
26.9
26.9
26.9
26.9
26.9
26.9
26.9
26.9
26.9
26.9
26.9
26.9
26.9
26.9
26.9
26.9
26.9
26.9
26.9
26.9
26.9
26.9
26.9
26.9
26.9
26.9
26.9
26.9
26.9
26.9
26.9
26.9
26.9
26.9
26.9
26.9
26.9
26.9
26.9
26.9
26.9
26.9
26.9
26.9
26.9
26.9
26.9
26.9
26.9
26.9
26.9
26.9
26.9
26.9
26.9
26.9
26.9
26.9
26.9
26.9
26.9
26.9
26.9
26.9
26.9
26.9
26.9
26.9
26.9
26.9
26.9
26.9
26.9
26.9
26.9
26.9
26.9
26.9
26.9
26.9
26.9
26.9
26.9
26.9
26.9
26.9
26.9
26.9
26.9
26.9
26.9
26.9
26.9
26.9
26.9
26.9
26.9
26.9
26.9
26.9
26.9
26.9
26.9
26.9
26.9
26.9
26.9
26.9
26.9
26.9
26.9
26.9
26.9
26.9
26.9
26.9
26.9
26.9
26.9
26.9
26.9
26.9
26.9
26.9
26.9
26.9
26.9
26.9
26.9
26.9
26.9
26.9
26.9
26.9
26.9
26.9
26.9
26.9
26.9
26.9
26.9
26.9
26.9
26.9
26.9
26.9
26.9
26.9
26.9
26.9
26.9
26.9
26.9
26.9
26.9
26.9
26.9
26.9
26.9
26.9
26.9
26.9
26.9
26.9
26.9
26.9
26.9
26.9
26.9
26.9
26.9
26.9
26.9
26.9
26.9
26.9
26.9
26.9
26.9
26.9
26.9
26.9
26.9
26.9
26.9
26.9
26.9
26.9
26.9
26.9
26.9
26.9
26.9
26.9
26.9
26.9
26.9
26.9
26.9
26.9
26.9
26.9
26.9
26.9
26.9
26.9
26.9
26.9
26.9
26.9
26.9
26.9
26.9
26.9
26.9
26.9
26.9
26.9
26.9
26.9
26.9
26.9
26.9
26.9
26.9
26.9
26.9
26.9
26.9
26.9
26.9
26.9
26.9
26.9
26.9
26.9
26.9
26.9
26.9
26.9
26.9
26.9
26.9
26.9
26.9
26.9
26.9
26.9
26.9
26.9
26.9
26.9
26.9
26.9
26.9
26.9
26.9
26.9
26.9
26.9
26.9
26.9
26.9
26.9
26.9
26.9
26.9
26.9
26.9
26.9
26.9
26.9
26.9
26.9
26.9
26.9
26.9
26.9
26.9
26.9
26.9
26.9
26.9
26.9
26.9
26.9
26.9
26.9
26.9
26.9
26.9
26.9
26.9
26.9
26.9
26.9
26.9
26.9
26.9
26.9
26.9
26.9
26.9
26.9
26.9
26.9
26.9
26.9
26.9
26.9
26.9
26.9
26.9
26.9
26.9
26.9
26.9
26.9
26.9
26.9
26.9
26.9
26.9
26.9
26.9
26.9
26.9
26.9
26.9
26.9
26.9
26.9
26.9
26.9
26.9
26.9
26.9
26.9
26.9
26.9
26.9
26.9
26.9
26.9
26.9
26.9
26.9
26.9
26.9
26.9
26.9
26.9
26.9
26.9
26.9
26.9
26.9
26.9
26.9
26.9
26.9
26.9
26.9
26.9
26.9
26.9
26.9
26.9
26.9
26.9
26.9
26.9
26.9
26.9
26.9
26.9
26.9
26.9
26.9
26.9
26.9
26.9
26.9
26.9
26.9
26.9
26.9
26.9
26.9
26.9
26.9
26.9
26.9
26.9
26.9
26.9
26.9
26.9
26.9
26.9
26.9
26.9
26.9
26.9
26.9
26.9
26.9
26.9
26.9
26.9
26.9
26.9
26.9
26.9
26.9
26.9
26.9
26.9
26.9
26.9
26.9
26.9
26.9
26.9
26.9
26.9
26.9
26.9
26.9
26.9
26.9
26.9
26.9
26.9
26.9
26.9
26.9
26.9
26.9
26.9
26.9
26.9
26.9
26.9
26.9
26.9
26.9
26.9
26.9
26.9
26.9
26.9
26.9
26.9
26.9
26.9
26.9
26.9
26.9
26.9
26.9
26.9
26.9
26.9
26.9
26.9
26.9
26.9
26.9
26.9
26.9
26.9
26.9
26.9
26.9
26.9
26.9
26.9
26.9
26.9
26.9
26.9
26.9
26.9
26.9
26.9
26.9
26.9
26.9
26.9
26.9
26.9
26.9
26.9
26.9
26.9
26.9
26.9
26.9
26.9
26.9
26.9
26.9
26.9
26.9
26.9
26.9
26.9
26.9
26.9
26.9
26.9
26.9
26.9
26.9
26.9
26.9
26.9
26.9
26.9
26.9
26.9
26.9
26.9
26.9
26.9
26.9
26.9
26.9
26.9
26.9
26.9
26.9
26.9
26.9
26.9
26.9
26.9
26.9
26.9
26.9
26.9
26.9
26.9
26.9
26.9
26.9
26.9
26.9
26.9
26.9
26.9
26.9
26.9
26.9
26.9
26.9
26.9
26.9
26.9
26.9
26.9
26.9
26.9
26.9
26.9
26.9
26.9
26.9
26.9
26.9
26.9
26.9
26.9
26.9
26.9
26.9
26.9
26.9
26.9
26.9
26.9
26.9
26.9
26.9
26.9
26.9
26.9
26.9
26.9
26.9
26.9
26.9
26.9
26.9
26.9
26.9
26.9
26.9
26.9
26.9
26.9
26.9
26.9
26.9
26.9
26.9
26.9
26.9
26.9
26.9
26.9
26.9
26.9
26.9
26.9
26.9
26.9
26.9
26.9
26.9
26.9
26.9
26.9
26.9
26.9
26.9
26.9
26.9
26.9
26.9
26.9
26.9
26.9
26.9
26.9
26.9
26.9
26.9
26.9
26.9
26.9
26.9
26.9
26.9
26.9
26.9
26.9
26.9
26.9
26.9
26.9
26.9
26.9
26.9
26.9
26.9
26.9
26.9
26.9
26.9
26.9
26.9
26.9
26.9
26.9
26.9
26.9
26.9
26.9
26.9
26.9
26.9
26.9
26.9
26.9
26.9
26.9
26.9
26.9
26.9
26.9
26.9
26.9
26.9
26.9
26.9
26.9
26.9
26.9
26.9
26.9
26.9
26.9
26.9
26.9
26.9
26.9
26.9
26.9
26.9
26.9
26.9
26.9
26.9
26.9
26.9
26.9
26.9
26.9
26.9
26.9
26.9
26.9
26.9
26.9
26.9
26.9
26.9
26.9
26.9
26.9
26.9
26.9
26.9
26.9
26.9
26.9
26.9
26.9
26.9
26.9
26.9
26.9
26.9
26.9
26.9
26.9
26.9
26.9
26.9
26.9
26.9
26.9
26.9
26.9
26.9
26.9
26.9
26.9
26.9
26.9
26.9
26.9
26.9
26.9
26.9
26.9
26.9
26.9
26.9
26.9
26.9
26.9
26.9
26.9
26.9
26.9
26.9
26.9
26.9
26.9
26.9
26.9
26.9
26.9
26.9
26.9
26.9
26.9
26.9
26.9
26.9
26.9
26.9
26.9
26.9
26.9
26.9
26.9
26.9
26.9
26.9
26.9
26.9
26.9
26.9
26.9
26.9
26.9
26.9
26.9
26.9
26.9
26.9
26.9
26.9
26.9
26.9
26.9
26.9
26.9
26.9
26.9
26.9
26.9
26.9
26.9
26.9
26.9
26.9
26.9
26.9
26.9
26.9
26.9
26.9
26.9
26.9
26.9
26.9
26.9
26.9
26.9
26.9
26.9
26.9
26.9
26.9
26.9
26.9
26.9
26.9
26.9
26.9
26.9
26.9
26.9
26.9
26.9
26.9
26.9
26.9
26.9
26.9
26.9
26.9
26.9
26.9
26.9
26.9
26.9
26.9
26.9
26.9
26.9
26.9
26.9
26.9
26.9
26.9
26.9
26.9
26.9
26.9
26.9
26.9
26.9
26.9
26.9
26.9
26.9
26.9
26.9
26.9
26.9
26.9
26.9
26.9
26.9
26.9
26.9
26.9
26.9
26.9
26.9
26.9
26.9
26.9
26.9
26.9
26.9
26.9
26.9
26.9
26.9
26.9
26.9
26.9
26.9
26.9
26.9
26.9
26.9
26.9
26.9
26.9
26.9
26.9
26.9
26.9
26.9
26.9
26.9
26.9
26.9
26.9
26.9
26.9
26.9
26.9
26.9
26.9
26.9
26.9
26.9
26.9
26.9
26.9
26.9
26.9
26.9
26.9
26.9
26.9
26.9
26.9
26.9
26.9
26.9
26.9
26.9
26.9
26.9
26.9
26.9
26.9
26.9
26.9
26.9
26.9
26.9
26.9
26.9
26.9
26.9
26.9
26.9
26.9
26.9
26.9
26.9
26.9
26.9
26.9
26.9
26.9
26.9
26.9
26.9
26.9
26.9
26.9
26.9
26.9
26.9
26.9
26.9
26.9
26.9
26.9
26.9
26.9
26.9
26.9
26.9
26.9
26.9
26.9
26.9
26.9
26.9
26.9
26.9
26.9
26.9
26.9
26.9
26.9
26.9
26.9
26.9
26.9
26.9
26.9
26.9
26.9
26.9
26.9
26.9
26.9
26.9
26.9
26.9
26.9
26.9
26.9
26.9
26.9
26.9
26.9
26.9
26.9
26.9
26.9
26.9
26.9
26.9
26.9
26.9
26.9
26.9
26.9
26.9
26.9
26.9
26.9
26.9
26.9
26.9
26.9
26.9
26.9
26.9
26.9
26.9
26.9
26.9
26.9
26.9
26.9
26.9
26.9
26.9
26.9
26.9
26.9
26.9
26.9
26.9
26.9
26.9
26.9
26.9
26.9
26.9
26.9
26.9
26.9
26.9
26.9
26.9
26.9
26.9
26.9
26.9
26.9
26.9
26.9
26.9
26.9
26.9
26.9
26.9
26.9
26.9
26.9
26.9
26.9
26.9
26.9
26.9
26.9
26.9
26.9
26.9
26.9
26.9
26.9
26.9
26.9
26.9
26.9
26.9
26.9
26.9
26.9
26.9
26.9
26.9
26.9
26.9
26.9
26.9
26.9
26.9
26.9
26.9
26.9
26.9
26.9
26.9
26.9
26.9
26.9
26.9
26.9
26.9
26.9
26.9
26.9
26.9
26.9
26.9
26.9
26.9
26.9
26.9
26.9
26.9
26.9
26.9
26.9
26.9
26.9
26.9
26.9
26.9
26.9
26.9
26.9
26.9
26.9
26.9
26.9
26.9
26.9
26.9
26.9
26.9
26.9
26.9
26.9
26.9
26.9
26.9
26.9
26.9
43.18
43.18
43.18
43.18
43.18
43.18
43.18
43.18
43.18
43.18
43.18
43.18
43.18
43.18
43.18
43.18
43.18
43.18
43.18
43.18
43.18
43.18
43.18
43.18
43.18
43.18
43.18
43.18
43.18
43.18
43.18
43.18
43.18
43.18
43.18
43.18
43.18
43.18
43.18
43.18
43.18
43.18
43.18
43.18
43.18
43.18
43.18
43.18
43.18
43.18
43.18
43.18
43.18
43.18
43.18
43.18
43.18
43.18
43.18
43.18
43.18
43.18
43.18
43.18
43.18
43.18
43.18
43.18
43.18
43.18
43.18
43.18
43.18
43.18
43.18
43.18
43.18
43.18
43.18
43.18
43.18
43.18
43.18
43.18
43.18
43.18
43.18
43.18
43.18
43.18
43.18
43.18
43.18
43.18
43.18
43.18
43.18
43.18
43.18
43.18
43.18
43.18
43.18
43.18
43.18
43.18
43.18
43.18
43.18
43.18
43.18
43.18
43.18
43.18
43.18
43.18
43.18
43.18
43.18
43.18
43.18
43.18
43.18
43.18
43.18
43.18
43.18
43.18
43.18
43.18
43.18
43.18
43.18
43.18
43.18
43.18
43.18
43.18
43.18
43.18
43.18
43.18
43.18
43.18
43.18
43.18
43.18
43.18
43.18
43.18
43.18
43.18
43.18
43.18
43.18
43.18
43.18
43.18
43.18
43.18
43.18
43.18
43.18
43.18
43.18
43.18
43.18
43.18
43.18
43.18
43.18
43.18
43.18
43.18
43.18
43.18
43.18
43.18
43.18
43.18
43.18
43.18
43.18
43.18
43.18
43.18
43.18
43.18
43.18
43.18
43.18
43.18
43.18
43.18
43.18
43.18
43.18
43.18
43.18
43.18
43.18
43.18
43.18
43.18
43.18
43.18
43.18
43.18
43.18
43.18
43.18
43.18
43.18
43.18
43.18
43.18
43.18
43.18
43.18
43.18
43.18
43.18
43.18
43.18
43.18
43.18
43.18
43.18
43.18
43.18
43.18
43.18
43.18
43.18
43.18
43.18
43.18
43.18
43.18
43.18
43.18
43.18
43.18
43.18
43.18
43.18
43.18
43.18
43.18
43.18
43.18
43.18
43.18
43.18
43.18
43.18
43.18
43.18
43.18
43.18
43.18
43.18
43.18
43.18
43.18
43.18
43.18
43.18
43.18
43.18
43.18
43.18
43.18
43.18
43.18
43.18
43.18
43.18
43.18
43.18
43.18
43.18
43.18
43.18
43.18
43.18
43.18
43.18
43.18
43.18
43.18
43.18
43.18
43.18
43.18
43.18
43.18
43.18
43.18
43.18
43.18
43.18
43.18
43.18
43.18
43.18
43.18
43.18
43.18
43.18
43.18
43.18
43.18
43.18
43.18
43.18
43.18
43.18
43.18
43.18
43.18
43.18
43.18
43.18
43.18
43.18
43.18
43.18
43.18
43.18
43.18
43.18
43.18
43.18
43.18
43.18
43.18
43.18
43.18
43.18
43.18
43.18
43.18
43.18
43.18
43.18
43.18
43.18
43.18
43.18
43.18
43.18
43.18
43.18
43.18
43.18
43.18
43.18
43.18
43.18
43.18
43.18
43.18
43.18
43.18
43.18
43.18
43.18
43.18
43.18
43.18
43.18
43.18
43.18
43.18
43.18
43.18
43.18
43.18
43.18
43.18
43.18
43.18
43.18
43.18
43.18
43.18
43.18
43.18
43.18
43.18
43.18
43.18
43.18
43.18
43.18
43.18
43.18
43.18
43.18
43.18
43.18
43.18
43.18
43.18
43.18
43.18
43.18
43.18
43.18
43.18
43.18
43.18
43.18
43.18
43.18
43.18
43.18
43.18
43.18
43.18
43.18
43.18
43.18
43.18
43.18
43.18
43.18
43.18
43.18
43.18
43.18
43.18
43.18
43.18
43.18
43.18
43.18
43.18
43.18
43.18
43.18
43.18
43.18
43.18
43.18
43.18
43.18
43.18
43.18
43.18
43.18
43.18
43.18
43.18
43.18
43.18
43.18
43.18
43.18
43.18
43.18
43.18
43.18
43.18
43.18
43.18
43.18
43.18
43.18
43.18
43.18
43.18
43.18
43.18
43.18
43.18
43.18
43.18
43.18
43.18
43.18
43.18
43.18
43.18
43.18
43.18
43.18
43.18
43.18
43.18
43.18
43.18
43.18
43.18
43.18
43.18
43.18
43.18
43.18
43.18
43.18
43.18
43.18
43.18
43.18
43.18
43.18
43.18
43.18
43.18
43.18
43.18
43.18
43.18
43.18
43.18
43.18
43.18
43.18
43.18
43.18
43.18
43.18
43.18
43.18
43.18
43.18
43.18
43.18
43.18
43.18
43.18
43.18
43.18
43.18
43.18
43.18
43.18
43.18
43.18
43.18
43.18
43.18
43.18
43.18
43.18
43.18
43.18
43.18
43.18
43.18
43.18
43.18
43.18
43.18
43.18
43.18
43.18
43.18
43.18
43.18
43.18
43.18
43.18
43.18
43.18
43.18
43.18
43.18
43.18
43.18
43.18
43.18
43.18
43.18
43.18
43.18
43.18
43.18
43.18
43.18
43.18
43.18
43.18
43.18
43.18
43.18
43.18
43.18
43.18
43.18
43.18
43.18
43.18
43.18
43.18
43.18
43.18
43.18
43.18
43.18
43.18
43.18
43.18
43.18
43.18
43.18
43.18
43.18
43.18
43.18
43.18
43.18
43.18
43.18
43.18
43.18
43.18
43.18
43.18
43.18
43.18
43.18
43.18
43.18
43.18
43.18
43.18
43.18
43.18
43.18
43.18
43.18
43.18
43.18
43.18
43.18
43.18
43.18
43.18
43.18
43.18
43.18
43.18
43.18
43.18
43.18
43.18
43.18
43.18
43.18
43.18
43.18
43.18
43.18
43.18
43.18
43.18
43.18
43.18
43.18
43.18
43.18
43.18
43.18
43.18
43.18
43.18
43.18
43.18
43.18
43.18
43.18
43.18
43.18
43.18
43.18
43.18
43.18
43.18
43.18
43.18
43.18
43.18
43.18
43.18
43.18
43.18
43.18
43.18
43.18
43.18
43.18
43.18
43.18
43.18
43.18
43.18
43.18
43.18
43.18
43.18
43.18
43.18
43.18
43.18
43.18
43.18
43.18
43.18
43.18
43.18
43.18
43.18
43.18
43.18
43.18
43.18
43.18
43.18
43.18
43.18
43.18
43.18
43.18
43.18
43.18
43.18
43.18
43.18
43.18
43.18
43.18
43.18
43.18
43.18
43.18
43.18
43.18
43.18
43.18
43.18
43.18
43.18
43.18
43.18
43.18
43.18
43.18
43.18
43.18
43.18
43.18
43.18
43.18
43.18
43.18
43.18
43.18
43.18
43.18
43.18
43.18
43.18
43.18
43.18
43.18
43.18
43.18
43.18
43.18
43.18
43.18
43.18
43.18
43.18
43.18
43.18
43.18
43.18
43.18
43.18
43.18
43.18
43.18
43.18
43.18
43.18
43.18
43.18
43.18
43.18
43.18
43.18
43.18
43.18
43.18
43.18
43.18
43.18
43.18
43.18
43.18
43.18
43.18
43.18
43.18
43.18
43.18
43.18
43.18
43.18
43.18
43.18
43.18
43.18
43.18
43.18
43.18
43.18
43.18
43.18
43.18
43.18
43.18
43.18
43.18
43.18
43.18
43.18
43.18
43.18
43.18
43.18
43.18
43.18
43.18
43.18
43.18
43.18
43.18
43.18
43.18
43.18
43.18
43.18
43.18
43.18
43.18
43.18
43.18
43.18
43.18
43.18
43.18
43.18
43.18
43.18
43.18
43.18
43.18
43.18
43.18
43.18
43.18
43.18
43.18
43.18
43.18
43.18
43.18
43.18
43.18
43.18
43.18
43.18
43.18
43.18
43.18
43.18
43.18
43.18
43.18
43.18
43.18
43.18
43.18
43.18
43.18
43.18
43.18
43.18
43.18
43.18
43.18
43.18
43.18
43.18
43.18
43.18
43.18
43.18
43.18
43.18
43.18
43.18
43.18
43.18
43.18
43.18
43.18
43.18
43.18
43.18
43.18
43.18
43.18
43.18
43.18
43.18
43.18
43.18
43.18
43.18
43.18
43.18
43.18
43.18
43.18
43.18
43.18
43.18
43.18
43.18
43.18
43.18
43.18
43.18
43.18
43.18
43.18
43.18
43.18
43.18
43.18
43.18
43.18
43.18
43.18
43.18
43.18
43.18
43.18
43.18
43.18
43.18
43.18
43.18
43.18
43.18
43.18
43.18
43.18
43.18
43.18
43.18
43.18
43.18
43.18
43.18
43.18
43.18
43.18
43.18
43.18
43.18
43.18
43.18
43.18
43.18
43.18
43.18
43.18
43.18
43.18
43.18
43.18
43.18
43.18
43.18
43.18
43.18
43.18
43.18
43.18
43.18
43.18
43.18
43.18
43.18
43.18
43.18
43.18
43.18
43.18
43.18
43.18
43.18
43.18
43.18
43.18
43.18
43.18
43.18
43.18
43.18
43.18
43.18
43.18
43.18
43.18
43.18
43.18
43.18
43.18
43.18
43.18
43.18
43.18
43.18
43.18
43.18
43.18
43.18
43.18
43.18
43.18
43.18
43.18
43.18
43.18
43.18
43.18
43.18
43.18
43.18
43.18
43.18
43.18
43.18
43.18
43.18
43.18
43.18
43.18
43.18
43.18
43.18
43.18
43.18
43.18
43.18
43.18
43.18
43.18
43.18
43.18
43.18
43.18
43.18
43.18
43.18
43.18
43.18
43.18
43.18
43.18
43.18
43.18
43.18
43.18
43.18
43.18
43.18
43.18
43.18
43.18
43.18
43.18
43.18
43.18
43.18
43.18
43.18
43.18
43.18
43.18
43.18
43.18
43.18
43.18
43.18
43.18
43.18
43.18
43.18
43.18
43.18
43.18
43.18
43.18
43.18
43.18
43.18
43.18
43.18
43.18
43.18
43.18
43.18
43.18
43.18
43.18
43.18
43.18
43.18
43.18
43.18
43.18
43.18
43.18
43.18
43.18
43.18
43.18
43.18
43.18
43.18
43.18
43.18
43.18
43.18
43.18
43.18
43.18
43.18
43.18
43.18
43.18
43.18
43.18
43.18
43.18
43.18
43.18
43.18
43.18
43.18
43.18
43.18
43.18
43.18
43.18
43.18
43.18
43.18
43.18
43.18
43.18
43.18
43.18
43.18
43.18
43.18
43.18
43.18
43.18
43.18
43.18
43.18
43.18
43.18
43.18
43.18
43.18
43.18
43.18
43.18
43.18
43.18
43.18
43.18
43.18
43.18
43.18
43.18
43.18
43.18
43.18
43.18
43.18
43.18
43.18
43.18
43.18
43.18
43.18
43.18
43.18
43.18
43.18
43.18
43.18
43.18
43.18
43.18
43.18
43.18
43.18
43.18
43.18
43.18
43.18
43.18
43.18
43.18
43.18
43.18
43.18
43.18
43.18
43.18
43.18
43.18
43.18
43.18
43.18
43.18
43.18
43.18
43.18
43.18
43.18
43.18
43.18
43.18
43.18
43.18
43.18
43.18
43.18
43.18
43.18
43.18
43.18
43.18
59.6714285714286
59.6714285714286
59.6714285714286
59.6714285714286
59.6714285714286
59.6714285714286
59.6714285714286
59.6714285714286
59.6714285714286
59.6714285714286
59.6714285714286
59.6714285714286
59.6714285714286
59.6714285714286
59.6714285714286
59.6714285714286
59.6714285714286
59.6714285714286
59.6714285714286
59.6714285714286
59.6714285714286
59.6714285714286
59.6714285714286
59.6714285714286
59.6714285714286
59.6714285714286
59.6714285714286
59.6714285714286
59.6714285714286
59.6714285714286
59.6714285714286
59.6714285714286
59.6714285714286
59.6714285714286
59.6714285714286
59.6714285714286
59.6714285714286
59.6714285714286
59.6714285714286
59.6714285714286
59.6714285714286
59.6714285714286
59.6714285714286
59.6714285714286
59.6714285714286
59.6714285714286
59.6714285714286
59.6714285714286
59.6714285714286
59.6714285714286
59.6714285714286
59.6714285714286
59.6714285714286
59.6714285714286
59.6714285714286
59.6714285714286
59.6714285714286
59.6714285714286
59.6714285714286
59.6714285714286
59.6714285714286
59.6714285714286
59.6714285714286
59.6714285714286
59.6714285714286
59.6714285714286
59.6714285714286
59.6714285714286
59.6714285714286
59.6714285714286
59.6714285714286
59.6714285714286
59.6714285714286
59.6714285714286
59.6714285714286
59.6714285714286
59.6714285714286
59.6714285714286
59.6714285714286
59.6714285714286
59.6714285714286
59.6714285714286
59.6714285714286
59.6714285714286
59.6714285714286
59.6714285714286
59.6714285714286
59.6714285714286
59.6714285714286
59.6714285714286
59.6714285714286
59.6714285714286
59.6714285714286
59.6714285714286
59.6714285714286
59.6714285714286
59.6714285714286
59.6714285714286
59.6714285714286
59.6714285714286
59.6714285714286
59.6714285714286
59.6714285714286
59.6714285714286
59.6714285714286
59.6714285714286
59.6714285714286
59.6714285714286
59.6714285714286
59.6714285714286
59.6714285714286
59.6714285714286
59.6714285714286
59.6714285714286
59.6714285714286
59.6714285714286
59.6714285714286
59.6714285714286
59.6714285714286
59.6714285714286
59.6714285714286
59.6714285714286
59.6714285714286
59.6714285714286
59.6714285714286
59.6714285714286
59.6714285714286
59.6714285714286
59.6714285714286
59.6714285714286
59.6714285714286
59.6714285714286
59.6714285714286
59.6714285714286
59.6714285714286
59.6714285714286
59.6714285714286
59.6714285714286
59.6714285714286
59.6714285714286
59.6714285714286
59.6714285714286
59.6714285714286
59.6714285714286
59.6714285714286
59.6714285714286
59.6714285714286
59.6714285714286
59.6714285714286
59.6714285714286
59.6714285714286
59.6714285714286
59.6714285714286
59.6714285714286
59.6714285714286
59.6714285714286
59.6714285714286
59.6714285714286
59.6714285714286
59.6714285714286
59.6714285714286
59.6714285714286
59.6714285714286
59.6714285714286
59.6714285714286
59.6714285714286
59.6714285714286
59.6714285714286
59.6714285714286
59.6714285714286
59.6714285714286
59.6714285714286
59.6714285714286
59.6714285714286
59.6714285714286
59.6714285714286
59.6714285714286
59.6714285714286
59.6714285714286
59.6714285714286
59.6714285714286
59.6714285714286
59.6714285714286
59.6714285714286
59.6714285714286
59.6714285714286
59.6714285714286
59.6714285714286
59.6714285714286
59.6714285714286
59.6714285714286
59.6714285714286
59.6714285714286
59.6714285714286
59.6714285714286
59.6714285714286
59.6714285714286
59.6714285714286
59.6714285714286
59.6714285714286
59.6714285714286
59.6714285714286
59.6714285714286
59.6714285714286
59.6714285714286
59.6714285714286
59.6714285714286
59.6714285714286
59.6714285714286
59.6714285714286
59.6714285714286
59.6714285714286
59.6714285714286
59.6714285714286
59.6714285714286
59.6714285714286
59.6714285714286
59.6714285714286
59.6714285714286
59.6714285714286
59.6714285714286
59.6714285714286
59.6714285714286
59.6714285714286
59.6714285714286
59.6714285714286
59.6714285714286
59.6714285714286
59.6714285714286
59.6714285714286
59.6714285714286
59.6714285714286
59.6714285714286
59.6714285714286
59.6714285714286
59.6714285714286
59.6714285714286
59.6714285714286
59.6714285714286
59.6714285714286
59.6714285714286
59.6714285714286
59.6714285714286
59.6714285714286
59.6714285714286
59.6714285714286
59.6714285714286
59.6714285714286
59.6714285714286
59.6714285714286
59.6714285714286
59.6714285714286
59.6714285714286
59.6714285714286
59.6714285714286
59.6714285714286
59.6714285714286
59.6714285714286
59.6714285714286
59.6714285714286
59.6714285714286
59.6714285714286
59.6714285714286
59.6714285714286
59.6714285714286
59.6714285714286
59.6714285714286
59.6714285714286
59.6714285714286
59.6714285714286
59.6714285714286
59.6714285714286
59.6714285714286
59.6714285714286
59.6714285714286
59.6714285714286
59.6714285714286
59.6714285714286
59.6714285714286
59.6714285714286
59.6714285714286
59.6714285714286
59.6714285714286
59.6714285714286
59.6714285714286
59.6714285714286
59.6714285714286
59.6714285714286
59.6714285714286
59.6714285714286
59.6714285714286
59.6714285714286
59.6714285714286
59.6714285714286
59.6714285714286
59.6714285714286
59.6714285714286
59.6714285714286
59.6714285714286
59.6714285714286
59.6714285714286
59.6714285714286
59.6714285714286
59.6714285714286
59.6714285714286
59.6714285714286
59.6714285714286
59.6714285714286
59.6714285714286
59.6714285714286
59.6714285714286
59.6714285714286
59.6714285714286
59.6714285714286
59.6714285714286
59.6714285714286
59.6714285714286
59.6714285714286
59.6714285714286
59.6714285714286
59.6714285714286
59.6714285714286
59.6714285714286
59.6714285714286
59.6714285714286
59.6714285714286
59.6714285714286
59.6714285714286
59.6714285714286
59.6714285714286
59.6714285714286
59.6714285714286
59.6714285714286
59.6714285714286
59.6714285714286
59.6714285714286
59.6714285714286
59.6714285714286
59.6714285714286
59.6714285714286
59.6714285714286
59.6714285714286
59.6714285714286
59.6714285714286
59.6714285714286
59.6714285714286
59.6714285714286
59.6714285714286
59.6714285714286
59.6714285714286
59.6714285714286
59.6714285714286
59.6714285714286
59.6714285714286
59.6714285714286
59.6714285714286
59.6714285714286
59.6714285714286
59.6714285714286
59.6714285714286
59.6714285714286
59.6714285714286
59.6714285714286
59.6714285714286
59.6714285714286
59.6714285714286
59.6714285714286
59.6714285714286
59.6714285714286
59.6714285714286
59.6714285714286
59.6714285714286
59.6714285714286
59.6714285714286
59.6714285714286
59.6714285714286
59.6714285714286
59.6714285714286
59.6714285714286
59.6714285714286
59.6714285714286
59.6714285714286
59.6714285714286
59.6714285714286
59.6714285714286
59.6714285714286
59.6714285714286
59.6714285714286
59.6714285714286
59.6714285714286
59.6714285714286
59.6714285714286
59.6714285714286
59.6714285714286
59.6714285714286
59.6714285714286
59.6714285714286
59.6714285714286
59.6714285714286
59.6714285714286
59.6714285714286
59.6714285714286
59.6714285714286
59.6714285714286
59.6714285714286
59.6714285714286
59.6714285714286
59.6714285714286
59.6714285714286
59.6714285714286
59.6714285714286
59.6714285714286
59.6714285714286
59.6714285714286
59.6714285714286
59.6714285714286
59.6714285714286
59.6714285714286
59.6714285714286
59.6714285714286
59.6714285714286
59.6714285714286
59.6714285714286
59.6714285714286
59.6714285714286
59.6714285714286
59.6714285714286
59.6714285714286
59.6714285714286
59.6714285714286
59.6714285714286
59.6714285714286
59.6714285714286
59.6714285714286
59.6714285714286
59.6714285714286
59.6714285714286
59.6714285714286
59.6714285714286
59.6714285714286
59.6714285714286
59.6714285714286
59.6714285714286
59.6714285714286
59.6714285714286
59.6714285714286
59.6714285714286
59.6714285714286
59.6714285714286
59.6714285714286
59.6714285714286
59.6714285714286
59.6714285714286
59.6714285714286
59.6714285714286
59.6714285714286
59.6714285714286
59.6714285714286
59.6714285714286
59.6714285714286
59.6714285714286
59.6714285714286
59.6714285714286
59.6714285714286
59.6714285714286
59.6714285714286
59.6714285714286
59.6714285714286
59.6714285714286
59.6714285714286
59.6714285714286
59.6714285714286
59.6714285714286
59.6714285714286
59.6714285714286
59.6714285714286
59.6714285714286
59.6714285714286
59.6714285714286
59.6714285714286
59.6714285714286
59.6714285714286
59.6714285714286
59.6714285714286
59.6714285714286
59.6714285714286
59.6714285714286
59.6714285714286
59.6714285714286
59.6714285714286
59.6714285714286
59.6714285714286
59.6714285714286
59.6714285714286
59.6714285714286
59.6714285714286
59.6714285714286
59.6714285714286
59.6714285714286
59.6714285714286
59.6714285714286
59.6714285714286
59.6714285714286
59.6714285714286
59.6714285714286
59.6714285714286
59.6714285714286
59.6714285714286
59.6714285714286
59.6714285714286
59.6714285714286
59.6714285714286
59.6714285714286
59.6714285714286
59.6714285714286
59.6714285714286
59.6714285714286
59.6714285714286
59.6714285714286
59.6714285714286
59.6714285714286
59.6714285714286
59.6714285714286
59.6714285714286
59.6714285714286
59.6714285714286
59.6714285714286
59.6714285714286
59.6714285714286
59.6714285714286
59.6714285714286
59.6714285714286
59.6714285714286
59.6714285714286
59.6714285714286
59.6714285714286
59.6714285714286
59.6714285714286
59.6714285714286
59.6714285714286
59.6714285714286
59.6714285714286
59.6714285714286
59.6714285714286
59.6714285714286
59.6714285714286
59.6714285714286
59.6714285714286
59.6714285714286
59.6714285714286
59.6714285714286
59.6714285714286
59.6714285714286
59.6714285714286
59.6714285714286
59.6714285714286
59.6714285714286
59.6714285714286
59.6714285714286
59.6714285714286
59.6714285714286
59.6714285714286
59.6714285714286
59.6714285714286
59.6714285714286
59.6714285714286
59.6714285714286
59.6714285714286
59.6714285714286
59.6714285714286
59.6714285714286
59.6714285714286
59.6714285714286
59.6714285714286
59.6714285714286
59.6714285714286
59.6714285714286
59.6714285714286
59.6714285714286
59.6714285714286
59.6714285714286
59.6714285714286
59.6714285714286
59.6714285714286
59.6714285714286
59.6714285714286
59.6714285714286
59.6714285714286
59.6714285714286
59.6714285714286
59.6714285714286
59.6714285714286
59.6714285714286
59.6714285714286
59.6714285714286
59.6714285714286
59.6714285714286
59.6714285714286
59.6714285714286
59.6714285714286
59.6714285714286
59.6714285714286
59.6714285714286
59.6714285714286
59.6714285714286
59.6714285714286
59.6714285714286
59.6714285714286
59.6714285714286
59.6714285714286
59.6714285714286
59.6714285714286
59.6714285714286
59.6714285714286
59.6714285714286
59.6714285714286
59.6714285714286
59.6714285714286
59.6714285714286
59.6714285714286
59.6714285714286
59.6714285714286
59.6714285714286
59.6714285714286
59.6714285714286
59.6714285714286
59.6714285714286
59.6714285714286
59.6714285714286
59.6714285714286
59.6714285714286
59.6714285714286
59.6714285714286
59.6714285714286
59.6714285714286
59.6714285714286
59.6714285714286
59.6714285714286
59.6714285714286
59.6714285714286
59.6714285714286
59.6714285714286
59.6714285714286
59.6714285714286
59.6714285714286