/*--------------------------------*- C++ -*----------------------------------*\
| =========                 |                                                 |
| \\      /  F ield         | OpenFOAM: The Open Source CFD Toolbox           |
|  \\    /   O peration     | Version:  1.6                                   |
|   \\  /    A nd           | Web:      www.OpenFOAM.org                      |
|    \\/     M anipulation  |                                                 |
\*---------------------------------------------------------------------------*/
FoamFile
{
    version     2.0;
    format      ascii;
    class       dictionary;
    location    "constant";
    object      dsmcProperties;
}
// * * * * * * * * * * * * * * * * * * * * * * * * * * * * * * * * * * * * * //


// General Properties
// ~~~~~~~~~~~~~~~~~~

nEquivalentParticles            2e11;


// Binary Collision Model
// ~~~~~~~~~~~~~~~~~~~~~~

BinaryCollisionModel            LarsenBorgnakkeVariableHardSphere;

LarsenBorgnakkeVariableHardSphereCoeffs
{
    rotationalRelaxationCollisionNumber     5.0;
}

// Collision Partner Selection Model
// ~~~~~~~~~~~~~~~~~~~~~~

collisionPartnerSelectionModel   		noTimeCounter;  


// Molecular species
// ~~~~~~~~~~~~~~~~~

typeIdList                      (N2cold);

moleculeProperties
{
    N2cold
    {
        mass                                  46.5e-27;
        diameter                              4.17e-10;
        diameterVSS                           4.11e-10;
        omega                                     0.74;
        alpha                                     1.36;
        rotationalDegreesOfFreedom                   2;
    }
}


// ************************************************************************* //
