/*--------------------------------*- C++ -*----------------------------------*\
| =========                 |                                                 |
| \\      /  F ield         | OpenFOAM: The Open Source CFD Toolbox           |
|  \\    /   O peration     | Version:  v1606+                                |
|   \\  /    A nd           | Web:      www.OpenFOAM.com                      |
|    \\/     M anipulation  |                                                 |
\*---------------------------------------------------------------------------*/
FoamFile
{
    version     2.0;
    format      ascii;
    class       dictionary;
    location    "constant";
    object      dynamicMeshDict;
}
// * * * * * * * * * * * * * * * * * * * * * * * * * * * * * * * * * * * * * //

dynamicFvMesh   dynamicRefineFvMesh;

dynamicRefineFvMeshCoeffs
{
    // How often to refine
    refineInterval  1000000;
    
    // Field to base refinement on
    field           cellMfpRatio_Ar;
    
    // Refine field inbetween lower..upper
    lowerRefineLevel 1.0;
    upperRefineLevel 15.0;
    
    // Unrefine field inbetween 0..unrefineLevel
    unrefineLevel 0.3;
    
    // Have slower than 2:1 refinement
    nBufferLayers   1;
    // Refine cells only up to maxRef levels
    maxRefinement   3;
    // Stop refinement if maxCells reached
    maxCells        300000;
    // Flux field and corresponding velocity field. Fluxes on changed
    // faces get recalculated by interpolating the velocity. Use 'none'
    // on surfaceScalarFields that do not need to be reinterpolated.
    correctFluxes
    (
        (phi none)
        (nHatf none)
        (rhoPhi none)
        (ghf none)
    );
    // Write the refinement level as a volScalarField
    dumpLevel       true;
}

// ************************************************************************* //
