/*--------------------------------*- C++ -*----------------------------------*\
| =========                 |                                                 |
| \\      /  F ield         | OpenFOAM: The Open Source CFD Toolbox           |
|  \\    /   O peration     | Version:  combo                                 |
|   \\  /    A nd           | Web:      www.OpenFOAM.org                      |
|    \\/     M anipulation  |                                                 |
\*---------------------------------------------------------------------------*/
FoamFile
{
    version     2.0;
    format      ascii;
    class       polyBoundaryMesh;
    location    "constant/polyMesh";
    object      boundary;
}
// * * * * * * * * * * * * * * * * * * * * * * * * * * * * * * * * * * * * * //

5
(
    FrontBack
    {
        type            empty;
        nFaces          644160;
        startFace       641122;
    }
    OF_inlet_00
    {
        type            patch;
        nFaces          110;
        startFace       1285282;
    }
    OF_outlet_00
    {
        type            patch;
        nFaces          110;
        startFace       1285392;
    }
    OF_wall_00
    {
        type            wall;
        nFaces          2928;
        startFace       1285502;
    }
    OF_symmetry_00
    {
        type            symmetry;
        nFaces          2928;
        startFace       1288430;
    }
)

// ************************************************************************* //
