/*--------------------------------*- C++ -*----------------------------------*\
| =========                 |                                                 |
| \\      /  F ield         | OpenFOAM: The Open Source CFD Toolbox           |
|  \\    /   O peration     | Version:  v1706                                 |
|   \\  /    A nd           | Web:      www.OpenFOAM.com                      |
|    \\/     M anipulation  |                                                 |
\*---------------------------------------------------------------------------*/
FoamFile
{
    version     2.0;
    format      ascii;
    class       polyBoundaryMesh;
    location    "constant/polyMesh";
    object      boundary;
}
// * * * * * * * * * * * * * * * * * * * * * * * * * * * * * * * * * * * * * //

5
(
    upperWall
    {
        type            wall;
        inGroups        1(wall);
        nFaces          5;
        startFace       895;
    }
    lowerWall
    {
        type            wall;
        inGroups        1(wall);
        nFaces          5;
        startFace       900;
    }
    periodicX_half0
    {
        type            cyclic;
        inGroups        1(cyclic);
        nFaces          100;
        startFace       905;
        matchTolerance  0.0001;
        transform       unknown;
        neighbourPatch  periodicX_half1;
    }
    periodicX_half1
    {
        type            cyclic;
        inGroups        1(cyclic);
        nFaces          100;
        startFace       1005;
        matchTolerance  0.0001;
        transform       unknown;
        neighbourPatch  periodicX_half0;
    }
    frontAndBack
    {
        type            empty;
        inGroups        1(empty);
        nFaces          1000;
        startFace       1105;
    }
)

// ************************************************************************* //
