/*--------------------------------*- C++ -*----------------------------------*\
| =========                 |                                                 |
| \\      /  F ield         | OpenFOAM: The Open Source CFD Toolbox           |
|  \\    /   O peration     | Version:  2.0.1                                 |
|   \\  /    A nd           | Web:      www.OpenFOAM.com                      |
|    \\/     M anipulation  |                                                 |
\*---------------------------------------------------------------------------*/
FoamFile
{
    version     2.0;
    format      ascii;
    class       dictionary;
    object      blockMeshDict;
}

// * * * * * * * * * * * * * * * * * * * * * * * * * * * * * * * * * * * * * //

convertToMeters 1;

vertices
(
    (0 0 0)
    (1 0 0)
    (1 0.025 0)
    (0 0.025 0)
    (0 0 0.005)
    (1 0 0.005)
    (1 0.025 0.005)
    (0 0.025 0.005)
);

blocks
(
    hex (0 1 2 3 4 5 6 7) (200 5 1) simpleGrading (1 1 1)    
);

boundary
(
      bottom
      {
          type patch;
          faces ((0 1 5 4));
      }
      
      top
      {
          type patch;
          faces ((3 2 6 7));
      }
   
      inlet
      {
          type cyclic;
          faces ((0 3 7 4));
          neighbourPatch outlet;
      }
      
      outlet
      {
          type cyclic;
          faces ((1 2 6 5));
          neighbourPatch inlet;
      }
       
      back
      {
          type symmetry;
          faces ((0 1 2 3));
      }
      
      front
      {
          type symmetry;
          faces ((4 7 6 5));
      }
);

mergePatchPairs
(
);


// ************************************************************************* //
