/*--------------------------------*- C++ -*----------------------------------*\
| =========                 |                                                 |
| \\      /  F ield         | OpenFOAM: The Open Source CFD Toolbox           |
|  \\    /   O peration     | Version:  2.1.1                                 |
|   \\  /    A nd           | Web:      www.OpenFOAM.org                      |
|    \\/     M anipulation  |                                                 |
\*---------------------------------------------------------------------------*/
FoamFile
{
    version     2.0;
    format      ascii;
    class       dictionary;
    object      surfaceQuantities;
}

// * * * * * * * * * * * * * * * * * * * * * * * * * * * * * * * * * * * * * //

wallShearStress
{
    type            wallShearStress;
    libs            ("libstrathFieldFunctionObjects.so");
    patches         ("object");
    writeControl    outputTime;
    log             no;
}


