/*--------------------------------*- C++ -*----------------------------------*\
| =========                 |                                                 |
| \\      /  F ield         | OpenFOAM: The Open Source CFD Toolbox           |
|  \\    /   O peration     | Version:  v1706                                 |
|   \\  /    A nd           | Web:      www.OpenFOAM.com                      |
|    \\/     M anipulation  |                                                 |
\*---------------------------------------------------------------------------*/
FoamFile
{
    version     2.0;
    format      ascii;
    class       scalarField;
    location    "0/lagrangian/dsmc";
    object      ERot;
}
// * * * * * * * * * * * * * * * * * * * * * * * * * * * * * * * * * * * * * //


99998
(
2.9853825857062e-20
1.76774129227897e-20
4.35560207791676e-20
5.3649769599026e-20
5.41132335219047e-20
1.198096710692e-19
1.25452290413067e-19
1.9565501357796e-20
3.40749405933564e-20
1.01796392154066e-19
1.0932695162552e-19
1.23684997277691e-19
1.90886188695765e-20
2.20528099046701e-20
4.09687901597927e-20
6.70773087722985e-20
3.1540841076965e-19
1.36476718842591e-20
1.74985630469178e-20
2.05816225510974e-20
2.50566413911189e-20
5.24549816069231e-20
1.58419158633478e-20
1.92755777139881e-19
9.14982474632683e-20
2.76973850430892e-19
5.89943316318e-20
3.30629179712349e-20
1.2708743544813e-19
5.51249064047602e-21
5.03725517853404e-20
3.37555671208919e-20
1.41011918557898e-19
2.53874143288089e-21
5.58097588501091e-21
9.14701610423181e-20
1.29720264526643e-19
2.70322630302093e-20
4.2083710282357e-20
2.43470431788433e-19
2.74506301364893e-20
3.04792207326309e-20
3.43643527477315e-20
1.49942325908838e-19
1.54070121806976e-19
1.96871231927722e-19
6.98646008670514e-21
1.95543709840876e-19
9.26829906139946e-20
2.34801021110602e-19
3.95813055099907e-20
2.14895186857255e-20
1.45410134509523e-20
6.14430463342491e-21
6.47710483054792e-20
1.19560305563192e-20
3.99478367443886e-20
2.35884716910687e-20
6.03188962412715e-20
9.15174717357733e-20
1.46283511932656e-20
4.12811052615432e-20
2.72618122925819e-20
4.71777844742357e-21
1.57034122365873e-19
1.08734194237677e-20
1.21471486611025e-19
2.1941171826536e-20
1.91228088583018e-19
5.8755756247328e-21
9.48698092852425e-21
2.04952177105426e-20
6.67530885312614e-20
1.90260264391919e-19
1.0103838255866e-19
1.45412499827352e-19
1.35488448782874e-19
1.90032528728902e-20
2.64065616840884e-20
8.07271099811521e-21
1.43238996676005e-19
7.1489536538315e-20
8.38381977045249e-20
4.84165364622471e-20
1.58928080760284e-19
8.57604995935321e-20
1.75670329715259e-20
2.09272405955205e-19
2.91890430232972e-20
5.68189756489986e-22
5.16785406013015e-20
2.28965677664361e-19
4.00267201933704e-20
3.94805109039036e-20
4.2150621928042e-21
6.82588824513074e-21
1.2598790996417e-20
2.59018990122969e-20
3.81658236333685e-20
7.51649858294965e-20
6.09029691129095e-20
4.8696820403895e-20
2.98683989358695e-20
9.62604579067863e-21
1.17271281888253e-19
6.50926361414112e-20
3.69022348840836e-20
1.23481408349456e-20
2.03765028487763e-21
1.00031182843108e-19
1.67762081465042e-20
1.76854467544729e-19
9.22677114264992e-20
2.73601852682879e-20
2.99464343610955e-20
1.55636704384802e-20
2.41113541545254e-20
6.66271940650205e-20
2.24492156468322e-19
1.49917882786453e-20
5.43672320737023e-20
1.91018053429077e-21
2.27171609007407e-19
1.7517535131951e-21
9.01457087041033e-20
3.34625096861492e-20
2.98968991619792e-21
1.28971390258578e-20
6.04571551866818e-21
1.70021380947355e-20
9.43458643830891e-20
3.58171979384531e-20
3.28856847544232e-20
1.57403133634505e-20
4.64907893100142e-20
2.16087740146669e-20
9.81105594588351e-20
5.93650279245436e-21
7.48291717156738e-20
1.11027221970535e-19
2.15755590589243e-20
2.87797730161578e-19
3.51790026398565e-20
1.83255417526797e-20
1.04329774834446e-19
1.29756260480495e-19
7.40711468033654e-20
1.62439247745766e-19
2.09111174751128e-20
2.93975591494483e-20
5.12071137713336e-20
8.4828896628633e-21
9.53714007475726e-21
7.87750479272168e-21
2.31822701044572e-21
2.69220617783651e-20
1.23763492565963e-19
2.82015334506528e-20
1.2648345557419e-19
9.58815048283148e-20
1.02112306244532e-19
1.63785954782921e-20
1.31482555264254e-20
4.70483810886609e-20
4.46665401333606e-20
4.91570197405318e-20
3.83663485763968e-21
3.16140747968889e-20
1.02756044870665e-20
2.75548088792226e-20
8.5071175743827e-20
9.50395392991235e-20
8.95594188205435e-20
1.66288464814935e-19
1.14976443406293e-19
6.08242880093386e-20
5.46271492053378e-20
9.93242947721238e-20
1.09426391663477e-19
1.32018662467817e-20
5.28843355071797e-21
5.02151725286443e-20
7.21935058727012e-20
1.76646628982873e-20
9.01195498023446e-20
2.62924181982273e-19
2.3808622985864e-20
8.58397789385907e-20
2.04397070718096e-19
5.07897126434945e-20
3.38079392748841e-21
3.91608943778274e-20
2.23255676192799e-20
3.45343128294978e-20
7.08546179596891e-21
3.16185603029233e-20
2.21572350331259e-21
4.95136719264151e-20
7.02641617826161e-20
1.49914523453039e-20
1.58993602948994e-20
7.21269107683723e-20
6.82435492394358e-20
9.56795616498442e-21
1.72349227984451e-19
1.89890420982701e-20
1.15734528408718e-20
2.63159803309809e-20
5.31944993306295e-21
1.14425741087079e-20
9.16836464094986e-20
5.66362221599684e-21
8.18981219536722e-20
8.89779813242111e-20
2.48996611177281e-20
1.11925553651596e-21
1.01149151975568e-19
6.72483306044247e-21
6.15095860220653e-21
1.32855883497803e-20
6.97248009329171e-20
1.36701099915776e-19
7.65923062554537e-21
2.78360888051654e-20
8.07682165699787e-20
8.04775190649897e-20
5.84092135182192e-22
1.04374353720541e-19
8.67317611487072e-20
4.34168889243655e-20
7.86917315288616e-20
1.09596850514107e-20
6.3951042445632e-21
3.49839696849354e-20
8.18220305029131e-20
4.80182539316127e-20
1.43292563109269e-19
1.1558338359827e-19
2.75881387294932e-19
7.28311169326402e-20
4.04153643208408e-20
9.5749828781748e-20
2.53889714181593e-19
7.46480659862594e-20
1.21472233283516e-20
1.40819065155262e-19
2.5877513971639e-19
2.26691294121501e-19
9.6777097977904e-20
1.59442971324625e-19
3.35475670091995e-20
4.21629175383154e-21
5.68671935139515e-20
7.68753254367764e-20
1.36532287857327e-19
9.37577962714881e-20
4.52094248148981e-20
6.42972509936915e-21
1.16985746236609e-21
8.67417602272763e-20
1.55241415121165e-20
4.82617903698189e-20
2.64464179334662e-19
2.92868980113674e-19
9.77202265542139e-20
2.12867971752978e-19
9.16584014327795e-20
9.40215042619249e-20
3.21991408754618e-20
8.16361053989382e-20
5.22356753550089e-20
1.3059300310423e-19
4.17745244911697e-20
3.88807569918888e-20
1.7202252256376e-19
1.39992702847706e-19
7.3310812581592e-20
2.31181340294709e-20
5.417099438353e-20
6.85667563682735e-20
4.6680611968989e-21
3.25624995253594e-20
2.91932154868704e-19
1.16685019496691e-19
4.55101926234996e-20
7.0820730485969e-20
2.57318373628647e-19
9.6971750273105e-20
2.31314715188628e-19
1.92710123933233e-19
4.92749998895347e-20
5.5803441045883e-20
7.65836623031858e-20
7.91585320820797e-20
1.12268512261207e-19
1.17383814882586e-19
1.36744863134874e-19
3.23492463582334e-20
2.74104403660132e-20
7.05947436909017e-21
1.76152978217821e-19
2.93090704238533e-20
1.58874031251612e-20
7.48018506002448e-20
8.40042825683963e-20
5.43851159891432e-20
3.14668153357737e-19
1.73289253961327e-19
3.72974834870205e-20
1.985935020665e-20
1.01857832547704e-19
1.18762384489345e-20
1.25638293742558e-21
1.62652667473788e-19
5.54727851040085e-21
2.84533660810525e-20
1.22071567623134e-19
8.66214353663585e-20
2.00526692949926e-19
2.19836058959768e-20
7.05117339310015e-21
8.0008079528042e-20
7.63053739510021e-20
4.4874441729177e-21
1.34031659114977e-20
9.62681831813602e-21
4.5078024383271e-20
4.38792906383513e-20
1.26462459846405e-19
5.24484102567198e-20
1.19945820248261e-19
4.70119144646252e-20
8.81270247012306e-20
3.88037781945562e-21
1.8501983569918e-19
1.02299445166071e-19
2.55331012853271e-21
2.13611318931928e-20
9.43284555637119e-20
5.60600039895344e-21
8.19496210354534e-20
3.55127219890344e-20
3.25620477123439e-20
2.02940954442892e-20
5.62759556581828e-20
1.37667499716875e-19
6.14476588129049e-20
2.75939084886815e-20
3.99994823110168e-21
8.38556342650095e-20
5.51747336541812e-20
9.71217771989142e-21
1.03772348781096e-19
1.68604970844187e-20
1.39996274926086e-20
9.05516938052408e-20
7.56686792102366e-20
2.15274921221338e-20
4.99802241098454e-20
2.35362184053647e-21
7.23644705934482e-20
8.77637743626552e-21
4.04307789341255e-20
3.7044232026293e-20
2.30073933480979e-20
4.97003824888105e-20
4.85261724221084e-20
2.96908467127612e-20
2.17671684265808e-19
8.45011266467746e-20
6.89579132583584e-20
1.16742008023009e-19
3.76827875744716e-20
4.50062343135023e-20
1.12603813235201e-19
2.93007322703917e-20
7.65261583659782e-20
1.46760486310081e-19
1.28681157389841e-20
2.59167062202608e-19
1.29305790482972e-19
1.66167806985615e-20
1.37153094925671e-19
1.26314367594148e-19
1.27702195634336e-19
2.7062108664649e-20
1.53563362561789e-20
3.51605718005523e-20
1.54230612625351e-20
3.52228039642294e-20
1.26632037975035e-20
4.59801786152136e-20
5.0002890522715e-20
4.13606481649716e-20
9.42945075762756e-20
5.31155145759432e-21
9.74773059781145e-20
1.80038190003155e-19
7.7566545078203e-20
4.93431186424178e-20
2.49873241997805e-20
2.19065371262525e-20
3.3352295292739e-20
7.09557927457044e-20
1.68268347141648e-19
5.21049224140823e-20
5.01488430726787e-21
6.2291193173431e-20
2.97333848854286e-20
1.2742274296208e-19
1.75164571195256e-20
1.72297707908746e-20
1.73283821942891e-20
1.16557934406191e-19
5.10218774635022e-20
8.89869377819589e-20
2.66613659575054e-20
2.94414011588655e-19
2.89536002568902e-20
1.05111605652097e-21
9.9274978425867e-21
7.69914872980569e-20
2.67339374432832e-19
2.89376289482706e-20
3.49469337868219e-19
2.67576014318113e-20
4.01760744595636e-20
1.66024171288025e-19
6.26690269059306e-20
9.82357928620724e-20
2.5271469228861e-20
1.2676393524314e-19
8.30805809499227e-20
4.24491062616269e-20
3.71519098782034e-20
6.15543043557459e-20
1.60115246163923e-20
1.16333946990707e-19
1.12899997131122e-19
8.11197951442475e-20
3.95501132041831e-20
2.17390677482174e-20
2.58860101957467e-19
1.39991724016077e-19
1.21237970261622e-19
1.08906254422638e-19
2.39940775991402e-20
3.4190462080616e-20
1.76701379868234e-20
4.68377331812173e-20
1.3920970306987e-20
1.06524314882484e-19
1.13067109680058e-20
3.49282875072005e-19
5.30716141051578e-20
3.61453413921829e-20
2.15958106724756e-20
2.49814396194801e-21
1.5345696903522e-19
1.94945252293447e-20
2.63624175050904e-20
6.92358526997423e-21
8.11319496652124e-22
1.67876613971512e-20
4.69340557761865e-20
9.43958729583263e-21
4.30130172423485e-20
1.11360309509461e-20
3.51932665633984e-22
2.33139881243978e-20
7.69610123812202e-21
2.40460349356656e-19
3.76316049732856e-20
5.52428325835182e-20
6.78623692576561e-20
2.10077957999998e-19
1.27391263088687e-19
4.80903358852007e-20
2.20576394764536e-19
6.29628610471275e-20
1.29666112631012e-19
1.92474335854731e-19
2.07156231613766e-19
2.83486610138887e-19
1.06627155231469e-19
1.81331237988035e-19
2.86661483619533e-19
6.08078151242015e-20
2.44666883946605e-19
6.10033876925774e-20
2.88645057919229e-20
2.32979872611436e-21
3.13576143195169e-19
8.12511153731047e-20
4.68883727059992e-20
2.54643440581215e-20
2.651357837889e-20
1.89661074149399e-20
4.50122366723977e-20
1.04517528587114e-19
1.0481029169642e-19
7.15854398988753e-20
1.5862630864686e-19
5.03775606628552e-20
4.94998533875814e-20
7.92590817717425e-21
6.30595863338565e-20
6.66264475844184e-20
2.48131103276685e-20
3.01417210322956e-19
1.21291849271349e-19
4.76234933030613e-20
1.44226474098828e-20
9.30425064762316e-20
1.78758172861332e-21
9.61286687781646e-20
1.5301932181526e-20
5.44226904967485e-20
1.24664516545015e-20
6.05927699297168e-20
5.6654120874493e-20
4.12240015308194e-20
2.33551721865339e-20
1.04034280380786e-20
1.1395706865488e-19
1.77430353455323e-19
3.46687230843605e-20
2.06090917541948e-20
4.44673170772574e-20
5.96859620099282e-20
3.57945044095257e-20
1.13828251713721e-20
6.74556022429723e-20
4.72839237020136e-20
1.43548488282405e-19
4.8377500672221e-21
5.92762965679097e-20
8.09493385485733e-20
3.72621668125756e-21
6.94312604608658e-20
8.33402183833999e-20
7.04731222355788e-20
9.07681861611224e-20
2.42700793323412e-20
6.91298434366295e-20
1.32922104185673e-19
2.25932395648191e-20
2.69405159866452e-20
2.74817448093742e-20
1.32556497996805e-20
1.89729110351522e-19
9.68468110765148e-20
1.44217035085769e-20
3.37162942754114e-20
8.82484409720387e-20
6.03894067988551e-20
3.89380165736501e-20
8.99567799458559e-20
3.5568308198685e-20
2.90105168801426e-20
1.32370377667315e-19
5.32456451867986e-19
6.90521074196757e-20
7.08576564237313e-20
3.03015552074261e-19
5.87478742980511e-20
1.54749687244512e-20
1.15796443175181e-19
2.74602429110792e-19
1.07851573999077e-21
3.73450740564992e-22
9.62962279256388e-20
7.41859832581679e-20
6.26674668326352e-22
2.38606366749538e-20
7.0917390654438e-20
9.23946916108581e-20
4.512758438946e-20
9.11408148639062e-20
7.20071690801614e-20
2.36614002040918e-19
1.736793371357e-19
4.92818563687762e-20
8.17865398867866e-20
1.83226141791456e-19
1.23527460770661e-19
1.1110212400802e-19
6.17533769163912e-21
8.84817171404895e-20
2.57875873538855e-21
1.22333030551498e-19
3.33024807382712e-20
1.12650457451366e-21
9.30620594143462e-20
1.22884905682156e-19
6.10641082591821e-20
6.12431440579692e-20
6.45283168668553e-20
2.95447878017433e-19
3.71722133587511e-20
8.92697544006594e-20
2.07168029194011e-20
3.77418818703304e-19
1.08376137191517e-19
9.05959439186966e-20
4.43047195518742e-20
3.82629575226133e-20
2.56664654645951e-19
3.41036848880298e-20
8.95003216915822e-21
1.3459670543899e-19
4.96012778360005e-21
1.73712922909554e-19
1.50438226409146e-21
1.44679095422993e-19
3.60782886484598e-20
9.90555569266416e-21
5.16763496250833e-20
7.69815727207716e-21
2.89243658277155e-20
1.04204251966119e-20
4.41616037996699e-20
1.45065031767387e-19
1.70279882970921e-20
1.18896919409656e-19
3.57521970594909e-19
6.47638421699957e-21
4.30860500852537e-20
7.10454070589903e-21
7.94895090404856e-20
2.54201823644577e-21
9.16831156154267e-20
1.32650413134403e-19
7.70504403736007e-21
2.95716956791759e-20
9.42687299095862e-21
1.31913848996074e-19
4.46805155784637e-20
1.18820627164345e-19
1.02008715342038e-20
2.06230370339775e-21
1.10900127694459e-20
8.01054841763798e-20
8.34369473996434e-20
1.78583340053197e-19
3.55095084394163e-20
8.86425899522326e-20
1.36515988122746e-20
1.97512440139896e-19
3.49021840258083e-20
1.95103338827768e-19
1.85448179242338e-19
2.42560246592746e-20
1.5453716527235e-19
8.80922616025486e-20
1.72472204081314e-20
1.12378965126662e-19
6.95826021277695e-20
1.78746451610678e-20
9.00054548952644e-20
4.42707242007639e-20
6.97687999483371e-20
5.93919748974575e-20
9.58726402574834e-20
7.43987902349522e-20
1.17317858811051e-19
8.80359734141941e-21
5.52298488846808e-20
3.06374248467579e-19
2.65554872406827e-20
2.15598952048377e-20
1.25775618014785e-19
1.89009982391316e-19
2.20732748091396e-20
2.86581526290454e-20
4.67397084961807e-20
2.61783633975715e-22
3.08046114754582e-20
6.01232575805316e-20
8.80810961065345e-20
1.92691151010091e-20
2.75890102803332e-19
1.48773025462346e-19
5.41307291799444e-20
1.86767632008849e-20
2.59297654386038e-19
7.75340383300631e-21
4.56685206964699e-20
5.12741713321445e-20
6.85767802935638e-20
2.93490990114865e-20
9.76821920649984e-20
1.54199754972912e-19
3.93588403662105e-20
7.95323513556989e-21
6.86965854493424e-20
1.39721832564111e-19
5.86471906404296e-20
6.04893527674391e-20
1.80626478585334e-20
1.05006653217128e-20
5.45606884490487e-20
1.40726349659325e-19
3.53400266662271e-20
1.25706515184398e-20
6.25039962409847e-21
1.15667808523733e-19
9.08273599170615e-20
1.16945095471138e-20
7.64234020495887e-21
1.03772940177283e-20
7.2350065024754e-20
1.08508141047459e-20
6.46275574472861e-20
6.9772248441497e-22
1.59558917434528e-20
1.71136515089121e-20
3.7497115143303e-21
2.30871538461532e-19
1.07436930488624e-21
7.57623583952826e-20
1.82277791339241e-19
5.91537803114916e-20
1.71398081855997e-20
9.75580696100628e-20
2.20074061275789e-19
2.37424870739333e-19
1.40235280120052e-19
2.90044079247986e-20
7.43554578316156e-22
1.78596374382403e-20
4.96732955417259e-20
2.89099037852819e-20
1.17510557003691e-19
1.35412517200188e-20
1.29622860033567e-19
1.88431393042297e-19
1.034976473027e-20
9.0667941754304e-20
2.08565657559012e-20
7.6670324933736e-20
1.19314026681132e-19
3.31382844269394e-20
4.50208135471296e-20
2.49257772865935e-20
6.69953036428905e-20
3.2916036022076e-20
5.70643490189355e-20
7.94808593786644e-20
2.85047938290248e-20
7.56317859088096e-20
4.06903401698171e-20
2.03357783164606e-20
7.74733385104792e-20
2.77091569182039e-19
5.05471428604832e-20
2.60396934328573e-20
3.86578512722426e-20
1.9542227858877e-19
7.63301389496331e-20
2.4239358899e-20
3.58047265961634e-21
2.39986537457008e-20
5.76274402021543e-20
4.46889225117018e-20
3.84868514638335e-23
2.47340250118545e-20
3.77261068388882e-20
1.0726622884919e-21
2.20472591011285e-20
2.26925035220764e-20
4.49624743290154e-20
1.11706947466685e-20
1.18958509385922e-19
1.7654261354661e-20
2.3281110366005e-20
2.47518700711926e-20
2.47387671418368e-20
1.32601091204858e-19
1.53569841418658e-19
6.19301322391532e-20
4.99970891333094e-20
1.98493117474496e-20
1.18728295953971e-19
8.74359573780926e-20
9.79378069161055e-20
3.64879760989032e-20
9.22474941967429e-20
7.66969448238285e-20
2.84739316517162e-20
1.81590724316709e-19
1.26462879607337e-19
1.2980696499396e-20
2.4889080646383e-19
1.34862125376341e-19
7.1663502545889e-20
5.90555102455579e-20
6.3435829443721e-20
5.52883044041225e-20
2.10159336568742e-20
5.46270869044954e-20
9.62570958146964e-20
3.45686694631583e-20
2.23940678144385e-19
1.0558517611617e-19
3.39609703049254e-20
6.43815729814084e-20
1.45734851831565e-19
2.0757347252419e-19
3.3277427986976e-20
1.00544580199706e-19
4.46481995506638e-21
3.94892418818146e-20
1.45620278661666e-20
4.85878753889673e-20
1.55578008044201e-19
1.93913482534839e-20
4.27652477248645e-20
1.41215621719128e-19
6.53773017539794e-20
9.26576200151451e-21
7.91445934461059e-21
1.98926828146683e-22
7.67332311863584e-20
6.50794690068326e-20
4.02477599371033e-20
6.90230893577701e-20
2.08501761049653e-20
1.46131718572856e-19
2.9195562691477e-20
5.22855756556326e-20
4.36006822128476e-20
1.64198297359743e-19
3.49745248758555e-19
6.37664344182485e-20
2.07162548132896e-19
2.22618162595488e-20
1.88191125317792e-19
7.18505195975964e-21
2.45148790341946e-20
1.38569214453619e-19
5.25646731808921e-21
2.03805407696123e-20
8.63455610919096e-20
2.96195206006495e-20
2.32325200238449e-20
1.72476239579081e-19
2.02166166355714e-22
6.55305461924103e-21
3.1156146370486e-20
3.71195978464327e-20
1.40348134092958e-19
7.46600144847867e-21
8.9209885255812e-21
3.07868819385866e-20
2.65939493761567e-21
4.59927893400216e-20
5.14626816031239e-20
4.30789993048048e-20
5.92363832746746e-20
5.64949060147884e-21
5.50092117944319e-21
3.06111642007434e-21
1.72845661925088e-19
1.51783947995202e-20
1.15060129827855e-19
4.01140045739558e-20
8.87421496678375e-21
1.25531524031067e-19
5.59571690192385e-20
1.3816796669693e-20
1.422005282657e-20
1.04918516971995e-19
3.43613029301253e-20
1.22070852020776e-20
2.09576848887557e-19
1.35564083614169e-20
2.57687044442622e-19
2.94306590693346e-20
3.19764212263565e-20
6.6485552268545e-20
2.10691541594627e-19
2.15731088068182e-21
1.24627383374592e-19
5.19188753944913e-20
3.2037699614974e-20
1.8588421993211e-19
5.37067259993111e-20
1.37364380934188e-19
9.31975509240381e-20
1.89468755700575e-19
5.38274740894524e-20
1.14279638077326e-19
1.12499679113959e-19
2.45901622976314e-20
1.52874323990226e-19
1.80595135296891e-19
1.31289542406495e-20
1.88303659874815e-19
3.29538859529379e-20
1.54962445942098e-19
1.32891806542824e-19
5.21826922406497e-20
1.16946000712857e-19
2.11361564672867e-19
3.87083183298474e-20
2.09489779775809e-20
2.34001853927169e-20
2.76653046940444e-20
1.65814210022335e-20
1.7201575845972e-19
7.92873984515417e-21
2.8290797180335e-20
9.29732143517924e-20
5.91552648813393e-21
4.66064880475204e-20
1.45925353207752e-19
1.87819327105836e-20
1.91892946958375e-20
2.04248085935511e-19
1.52805174377424e-20
1.80318207248954e-21
8.13117564053863e-20
2.27219150703184e-20
6.98562540846983e-20
1.11134488116426e-21
6.97534444411133e-20
9.07165063870267e-20
1.14558839551051e-19
1.5080149371778e-19
1.23937219361494e-19
1.42903955691376e-19
1.73347360734935e-20
2.38963042057332e-19
5.65226110731839e-20
2.08685156011494e-20
5.48861724854964e-20
1.44696372774667e-19
4.64577864327257e-21
3.68805240325829e-20
1.77866248744722e-20
5.14657127963697e-20
1.06641432830532e-20
3.21443148216966e-20
1.46009138441707e-19
8.83819820117598e-20
4.77639094313789e-21
1.17941898786901e-19
6.23757584444388e-21
1.34378905974324e-20
4.75889617494113e-20
1.13265576008598e-19
1.51417416539639e-19
1.45356247393376e-19
1.75903868029304e-20
2.02254070555489e-20
5.02687695798736e-20
1.16564445002503e-19
4.48960079095881e-20
5.33704288099367e-20
3.60615951617341e-20
1.13244897785751e-19
8.78623584351479e-21
2.15281346268284e-20
1.94244928911647e-20
7.76688264200602e-20
4.47982378192049e-20
1.05694119446196e-19
1.558160032142e-19
1.53627048256742e-19
1.13068759511928e-19
5.4649156102002e-20
2.42575872144392e-20
3.34786906793822e-20
2.12960719489935e-19
1.52169062385822e-19
1.52447546271233e-20
1.1787917574483e-20
4.03539497726364e-20
1.85586578328634e-20
1.48348009957277e-19
2.7610538799417e-20
2.11631627909445e-20
3.579019385603e-20
5.35031656723388e-20
3.42735638567558e-20
1.48777276568899e-19
4.43920019698763e-20
1.03254849527113e-20
3.83295820158454e-20
1.04908108051205e-20
4.12248723378737e-20
1.85984623677467e-19
1.21150188551911e-19
2.25123787118417e-20
4.53937403445452e-20
1.09332533364249e-19
4.42853730106377e-20
6.29451809962594e-20
7.91573814886922e-20
3.87868552312818e-20
4.88643060108515e-20
1.20683977946252e-19
9.06867054338321e-20
1.07525533276429e-19
1.59819226387331e-20
2.01208638384015e-20
4.31477655051224e-20
1.38269672265956e-19
1.43000422421987e-19
7.1437971127306e-20
2.19023540316732e-21
3.42871008226493e-20
3.212305415938e-20
5.97330481016578e-21
3.9944704986681e-20
3.3673977740582e-20
2.7156675689794e-20
3.56361247033626e-19
3.95905520109098e-20
1.27683810705591e-19
9.94149558725452e-20
9.42445355337385e-20
5.81690954853286e-20
6.41054162240466e-20
1.00447829201337e-19
1.03982677580777e-19
6.48355270142378e-20
4.17431472821413e-21
1.0795310762641e-19
9.29752538428356e-20
1.28198129492711e-19
5.8585616448121e-20
1.0709903780206e-20
3.05423836917283e-20
5.59787975100416e-20
1.98409721338274e-20
3.18020402471733e-21
1.13351565258745e-19
1.346216817953e-19
1.97570854870234e-20
4.97105609458563e-20
2.80208536107164e-19
2.53639735845499e-20
3.48757554560473e-20
1.19297261435801e-19
4.3710533803979e-20
4.61417650809896e-21
7.45881322949112e-20
2.17126934434949e-20
5.73466478842084e-21
3.26714008887063e-20
3.10761046183354e-21
4.44546753166635e-20
2.96637704558052e-19
2.20274937655859e-20
1.85464857087892e-20
9.75457354818824e-21
6.50110261465818e-20
1.58864399991881e-19
2.4903778591567e-20
1.36092666749127e-20
2.42763922534665e-20
7.28625880870489e-21
1.16061744721228e-19
8.94280944730805e-21
2.70965409806842e-20
1.20651782501043e-19
5.0271645216772e-20
9.69155820279174e-21
6.0694823525041e-20
2.0196559280814e-20
4.31130893581704e-20
1.90802342248982e-19
3.16486633046004e-20
2.86149291197145e-20
8.62160520166894e-20
7.49167682787903e-20
9.59393231054847e-21
8.95182685774654e-20
8.34004830128317e-20
1.20509531248434e-19
4.17727392375114e-20
5.66278213104826e-20
1.93391125572014e-20
6.79475455142591e-20
6.34055515295153e-20
5.7027068363127e-20
3.49686910580106e-20
6.57588383760438e-20
2.85039889501653e-22
2.15700139728258e-20
1.23462299385408e-19
1.10465858193076e-19
1.29582605409243e-19
5.08547519575302e-20
3.63435316593049e-22
2.81459760575262e-20
3.13075404445607e-20
1.62171916474059e-19
1.38963673379425e-19
7.1377725272379e-20
3.06898620316011e-19
4.20589433014077e-19
4.73048689062429e-20
1.53516349262518e-19
2.37564236204047e-20
1.87999810699598e-19
5.92485709951173e-20
1.04973996572976e-19
8.2972845070289e-20
1.26425104184235e-19
1.15243793362501e-20
1.95064935639189e-20
1.46951517007697e-19
9.408042074827e-21
4.94940693514972e-20
4.53208409817957e-20
4.51276302401084e-20
5.65555059309797e-20
3.63132801121213e-21
2.81618512798125e-20
1.43265143402194e-19
2.54098518926486e-20
1.35782341757814e-19
1.19130029969133e-19
3.02969496557949e-20
8.11240943968669e-21
1.7109282765619e-20
4.94573372610116e-20
2.12920762541309e-19
1.95525380058021e-19
3.22951942935595e-19
1.02838848782408e-19
9.12935090143733e-20
1.01650775168971e-20
7.09769510209139e-20
1.17418021741373e-19
4.95125040145398e-20
5.34164045457122e-20
3.66044710977834e-20
1.32563687356297e-19
1.30269855865355e-19
4.05258360891831e-20
3.24134502290504e-21
1.59394068511924e-20
2.57684598900573e-19
3.15806475277354e-20
1.53339204015991e-19
5.39304370395441e-20
1.37970807121763e-19
7.50984445731903e-20
4.30695892084664e-21
2.14331504065167e-19
2.85209460635312e-20
5.40081502818144e-20
3.75796126196714e-20
1.68099671476572e-20
6.58877150214211e-20
6.91049086207511e-21
9.5790644301014e-20
4.19261764510064e-21
1.53583737690645e-20
9.92303329097002e-20
9.0753368710115e-20
2.88187418437076e-20
4.57786780884507e-20
3.10062096179028e-20
1.2067162191471e-19
8.8168922233425e-20
5.36422248189215e-20
7.09252144536899e-20
2.06166518699569e-19
1.64805919175117e-19
9.61629287566162e-20
6.37116586855939e-20
3.260439829509e-20
9.47003494258948e-20
1.34805980320963e-20
3.09247674562694e-20
3.12102729952498e-20
2.69361966468511e-20
8.7479911123865e-20
1.24974257774993e-19
4.96433225038043e-20
7.66181620547005e-20
1.704255491775e-19
8.18766098959928e-20
3.441720390392e-20
9.23414089500221e-20
6.44542393993136e-21
7.58583856772212e-20
1.12650810689816e-20
5.43665437235987e-20
2.04948064601096e-20
2.1476156726563e-20
3.76238191166996e-20
1.06046702710669e-19
2.45941357541136e-24
1.26948763437017e-19
1.18723634780178e-19
4.74173963680708e-22
8.43181906779426e-20
2.33480975668098e-20
9.43408258897801e-20
1.85894429810328e-20
2.61967052151531e-20
6.56980020147086e-20
6.51618355428154e-21
7.16788037545084e-20
1.50120731242745e-19
2.83628910382148e-19
7.35321606906084e-20
1.02987250021256e-19
1.42559556055878e-20
2.08265226134599e-20
1.89722273409841e-20
9.70645490481577e-20
1.4577438486503e-19
2.16248210152506e-20
2.30992927654701e-20
8.7506010821527e-20
5.46620871234105e-20
1.92189037484343e-20
2.40514422643364e-20
5.05028452762863e-20
1.05604435532349e-19
7.97875275205449e-20
5.86256893160792e-21
3.6872244048055e-20
3.15721660321914e-20
1.53663747467841e-20
7.41067377481497e-20
8.18278961216669e-21
9.4110395477687e-20
2.79880755380841e-19
2.50852056534049e-20
5.00087308175666e-21
2.15899177725691e-20
8.98254064881474e-20
1.37713332882727e-19
2.00695662979147e-20
7.68352649240264e-20
1.84561748664753e-19
2.02870701512454e-19
1.10794846384696e-19
2.33923061836555e-20
8.31867880795703e-20
1.64458384986841e-20
8.47339360713419e-20
1.55410364298168e-20
1.12185815969382e-19
6.84697429315456e-21
3.01749563723105e-20
1.7236228673443e-20
3.52330531255016e-20
3.06525814973521e-20
3.94276057827424e-20
1.67978449176974e-20
6.2884306021509e-20
6.72827886352636e-20
4.33725078588879e-20
6.66123361598625e-20
4.03458794228386e-20
3.39045838094531e-20
8.93780271964982e-21
5.47944873334371e-20
4.91372471521623e-20
7.18111137341733e-20
6.20145167468027e-20
6.33830234591663e-20
2.82614486274625e-20
2.27663387964939e-20
2.65183931424817e-19
4.24402534357922e-20
2.41721543749505e-20
1.18593702283886e-20
3.32726079252405e-20
2.09772547753051e-19
3.97323590240708e-20
1.0268402951376e-19
3.07389812523392e-19
3.9510001740084e-21
2.72315898136509e-19
5.31609589896513e-20
4.65659130788291e-20
4.9059645236133e-20
1.61751899995851e-19
8.17758505108836e-20
3.78434082543363e-20
3.42337998203355e-20
1.79529386664817e-20
1.22078338243012e-19
3.10439493196437e-20
7.34160845746525e-20
1.30598162982883e-20
4.55493161640626e-22
1.01601566063293e-20
1.79841925559281e-19
1.89546274000817e-19
1.50230112420083e-20
1.20307203648056e-21
1.75093933555673e-19
8.79321322790937e-20
8.43807071200379e-20
2.6147390196719e-20
4.57117429774321e-20
6.87390871119359e-20
2.02038620464405e-20
1.73218335506649e-19
3.4056360167269e-20
1.52479472921322e-19
4.06459420173798e-20
2.19215563572622e-19
1.06326256781127e-19
1.15525178632484e-19
1.30277630216288e-19
5.72601747141241e-20
8.9967356412037e-21
1.48316127194298e-19
2.33808434079967e-21
8.92447416048745e-20
2.54574231476605e-20
1.1909796357015e-20
2.71027159347546e-20
1.3288608302658e-20
1.6712496185033e-20
5.20919022611553e-21
3.69512445300801e-20
7.50609375073809e-21
1.77111179105469e-20
8.73191077796218e-21
1.54828430520621e-19
2.07028884788753e-20
3.77129857655351e-20
3.15778584298641e-19
7.00691483393192e-20
3.06038250536647e-19
5.67565753652809e-20
6.39342738398162e-20
1.17331465093493e-19
6.30011731992635e-20
7.98760419464233e-20
6.78809335937387e-21
4.09172894243831e-21
2.74743028880304e-21
3.90020834616102e-20
1.39802241750834e-19
8.54495604988295e-22
3.5159616276415e-20
2.53384890687585e-20
7.6083831831291e-21
5.32084233847778e-20
1.78727086665787e-20
5.43463255168418e-21
3.13152965100978e-20
2.58025151888302e-20
2.88870157009092e-20
5.51588723538782e-21
5.66873462929827e-20
2.1894160617128e-20
1.97062389368723e-20
1.25603784665704e-20
6.20281208198975e-20
4.80175893407227e-20
9.12663341920712e-21
1.2290024547829e-19
2.25786108810131e-20
8.06617601750992e-20
7.14867310543248e-20
4.31595053488548e-20
2.5234451907629e-20
1.47058511104952e-19
2.88934453981751e-19
1.81250505485098e-20
3.07559563683293e-20
1.14876267032448e-20
3.05272912447908e-19
1.0384548684008e-19
1.8491390560414e-19
4.39345548792167e-20
1.32072687293639e-20
3.45011409977979e-21
7.90862281581752e-20
5.26797118568176e-21
2.94827950166013e-20
6.01441746966735e-20
5.34720623094073e-20
1.83348233586996e-20
5.10540560686808e-20
3.1646035017847e-19
3.04818249897841e-21
9.23052517500383e-20
1.14632782104634e-20
1.1052979048716e-19
5.47555121561697e-20
5.76022998140631e-20
1.66509826732674e-19
6.12784376621831e-20