/*--------------------------------*- C++ -*----------------------------------*\
 | ========                 |                                                 |
 | \      /  F ield         | OpenFOAM: The Open Source CFD Toolbox           |
 |  \    /   O peration     | Version:  2.2.2                                 |
 |   \  /    A nd           | Web:      www.OpenFOAM.org                      |
 |    \/     M anipulation  | This file generated by e3post.py                |
\*---------------------------------------------------------------------------*/
FoamFile
{
    version     2.0;
    format      ascii;
    class       dictionary;
    object      createPatchDict;
}
// * * * * * * * * * * * * * * * * * * * * * * * * * * * * * * * * * * * * * //

pointSync false;
// Patches to create. 
patches 
(
    {
        name OF_symmetry_00;
        patchInfo
        {
            type symmetry;
        }
        constructFrom patches;
        patches ( n0000 n0001 n0004 n0006 n0008 n0010 n0012 n0014 n0016 n0018 n0020 n0022 n0023 n0024);
    }
);

// ************************************************************************* //
