/*--------------------------------*- C++ -*----------------------------------*\
| =========                 |                                                 |
| \\      /  F ield         | OpenFOAM: The Open Source CFD Toolbox           |
|  \\    /   O peration     | Version:  1.7.1                                 |
|   \\  /    A nd           | Web:      www.OpenFOAM.com                      |
|    \\/     M anipulation  |                                                 |
\*---------------------------------------------------------------------------*/
FoamFile
{
    version     2.0;
    format      ascii;
    class       dictionary;
    location    "constant";
    object      dsmcProperties;
}
// * * * * * * * * * * * * * * * * * * * * * * * * * * * * * * * * * * * * * //


// General Properties
// ~~~~~~~~~~~~~~~~~~

nEquivalentParticles            429576195535.3;


// Binary Collision Model
// ~~~~~~~~~~~~~~~~~~~~~~

BinaryCollisionModel            LarsenBorgnakkeVariableHardSphere;

LarsenBorgnakkeVariableHardSphereCoeffs
{
    rotationalRelaxationCollisionNumber   5.0;
}


// Collision Partner Selection Model
// ~~~~~~~~~~~~~~~~~~~~~~

collisionPartnerSelectionModel   		 noTimeCounter;


// Molecular species
// ~~~~~~~~~~~~~~~~~

typeIdList                      (N2 O2);

moleculeProperties
{

  	N2
    {
        mass                                  46.5e-27;
        diameter                              4.17e-10;
        diameterVSS                           4.11e-10;
        omega                                     0.74;
        alpha                                     1.36;
        rotationalDegreesOfFreedom                   2;
        nVibrationalModes                            0;
    }
    
    O2
    {
        mass                                 53.12e-27;
        diameter                              4.07e-10;
        diameterVSS                           4.01e-10;
        omega                                     0.77;
        alpha                                      1.4;
        rotationalDegreesOfFreedom                   2;
        nVibrationalModes                            0;
    }
}

// ************************************************************************* //
