/*--------------------------------*- C++ -*----------------------------------*\
| =========                 |                                                 |
| \\      /  F ield         | OpenFOAM: The Open Source CFD Toolbox           |
|  \\    /   O peration     | Version:  v1706                                 |
|   \\  /    A nd           | Web:      www.OpenFOAM.com                      |
|    \\/     M anipulation  |                                                 |
\*---------------------------------------------------------------------------*/
FoamFile
{
    version     2.0;
    format      ascii;
    class       dictionary;
    location    "7/uniform";
    object      volFieldsMethod_N2;
}
// * * * * * * * * * * * * * * * * * * * * * * * * * * * * * * * * * * * * * //

rhoNMean        250 ( 22270163 22271454 22277577 22280018 22284668 22208878 22207072 22212609 22212771 22202315 22139623 22144508 22145750 22150434 22148661 22068420 22080708 22078959 22082033 22076815 22004542 22006074 22000745 22012057 22008353 21937853 21929295 21933931 21938565 21941573 21866472 21876644 21868981 21873911 21871629 21808562 21815817 21810673 21813967 21807145 21734703 21734630 21732790 21736537 21728316 21676347 21671611 21666816 21677487 21673290 21610527 21602170 21608418 21613427 21611217 21537676 21556825 21546579 21547139 21540875 21479695 21482451 21479330 21473930 21476322 21425179 21416038 21414143 21408774 21412612 21347358 21349126 21356151 21349236 21356596 21294310 21297059 21300802 21296870 21298234 21224676 21224887 21230754 21235376 21232466 21166490 21166289 21179773 21173229 21172325 21111860 21111639 21115063 21107852 21124767 21056495 21049858 21050357 21057019 21058020 20995933 21002887 20997788 21001407 21001291 20941074 20937729 20939703 20941993 20935854 20887375 20883367 20873340 20892019 20886801 20829267 20827266 20832930 20820375 20827677 20770336 20778003 20769632 20771447 20770427 20711117 20715691 20705959 20718665 20708560 20651169 20658253 20647875 20659779 20655443 20607129 20593552 20597291 20592907 20603494 20543337 20542947 20536696 20534448 20543076 20479663 20490904 20487363 20481060 20492063 20427066 20429788 20423823 20423056 20424073 20368776 20367988 20371494 20362825 20360242 20311896 20312320 20324483 20317512 20312531 20269630 20265170 20272598 20272080 20268303 20217597 20220415 20215276 20220275 20213537 20160971 20164233 20156513 20160146 20168316 20095228 20097219 20107704 20112755 20101672 20048111 20056996 20054284 20053828 20049867 20003305 19998662 19998388 20002599 20002975 19946695 19947572 19950501 19940200 19944329 19888518 19878478 19885661 19896846 19899024 19834924 19832008 19830914 19842997 19831796 19780448 19770001 19778081 19782469 19779414 19720326 19717302 19733123 19731110 19721720 19665424 19667819 19671052 19674033 19672233 19618518 19619882 19609302 19616995 19622383 19554698 19555211 19558101 19564142 19554595 19499957 19494510 19499305 19503804 19505309 19435586 19439597 19443927 19438026 19427950 19368783 19366381 19361592 19351623 19362305 );

rhoMMean        250 ( 1.03556258e-18 1.035622611e-18 1.035907331e-18 1.036020837e-18 1.036237062e-18 1.032712827e-18 1.032628848e-18 1.032886319e-18 1.032893852e-18 1.032407648e-18 1.02949247e-18 1.029719622e-18 1.029777375e-18 1.029995181e-18 1.029912737e-18 1.02618153e-18 1.026752922e-18 1.026671594e-18 1.026814535e-18 1.026571898e-18 1.023211203e-18 1.023282441e-18 1.023034643e-18 1.023560651e-18 1.023388415e-18 1.020110165e-18 1.019712218e-18 1.019927792e-18 1.020143273e-18 1.020283145e-18 1.016790948e-18 1.017263946e-18 1.016907617e-18 1.017136862e-18 1.017030749e-18 1.014098133e-18 1.014435491e-18 1.014196295e-18 1.014349466e-18 1.014032243e-18 1.01066369e-18 1.010660295e-18 1.010574735e-18 1.010748971e-18 1.010366694e-18 1.007950136e-18 1.007729912e-18 1.007506944e-18 1.008003146e-18 1.007807985e-18 1.004889506e-18 1.004500905e-18 1.004791437e-18 1.005024356e-18 1.004921591e-18 1.001501934e-18 1.002392363e-18 1.001915924e-18 1.001941964e-18 1.001650688e-18 9.988058177e-19 9.989339717e-19 9.987888452e-19 9.985377452e-19 9.986489732e-19 9.962708237e-19 9.958457672e-19 9.957576497e-19 9.955079912e-19 9.956864582e-19 9.926521472e-19 9.927343592e-19 9.930610217e-19 9.927394742e-19 9.930817142e-19 9.901854152e-19 9.903132437e-19 9.904872932e-19 9.903044552e-19 9.903678812e-19 9.869474342e-19 9.869572457e-19 9.872300612e-19 9.874449842e-19 9.873096692e-19 9.842417852e-19 9.842324387e-19 9.848594447e-19 9.845551487e-19 9.845131127e-19 9.817014902e-19 9.816912137e-19 9.818504297e-19 9.815151182e-19 9.823016657e-19 9.791270177e-19 9.788183972e-19 9.788416007e-19 9.791513837e-19 9.791979302e-19 9.763108847e-19 9.766342457e-19 9.763971422e-19 9.765654257e-19 9.765600317e-19 9.737599412e-19 9.736043987e-19 9.736961897e-19 9.738026747e-19 9.735172112e-19 9.712629377e-19 9.710765657e-19 9.706103102e-19 9.714788837e-19 9.712362467e-19 9.685609157e-19 9.684678692e-19 9.687312452e-19 9.681474377e-19 9.684869807e-19 9.658206242e-19 9.661771397e-19 9.657878882e-19 9.658722857e-19 9.658248557e-19 9.630669407e-19 9.632796317e-19 9.628270937e-19 9.634179227e-19 9.629480402e-19 9.602793587e-19 9.606087647e-19 9.601261877e-19 9.606797237e-19 9.604780997e-19 9.582314987e-19 9.576001682e-19 9.577740317e-19 9.575701757e-19 9.580624712e-19 9.552651707e-19 9.552470357e-19 9.549563642e-19 9.548518322e-19 9.552530342e-19 9.523043297e-19 9.528270362e-19 9.526623797e-19 9.523692902e-19 9.528809297e-19 9.498585692e-19 9.499851422e-19 9.497077697e-19 9.496721042e-19 9.497193947e-19 9.471480842e-19 9.471114422e-19 9.472744712e-19 9.468713627e-19 9.467512532e-19 9.445031642e-19 9.445228802e-19 9.450884597e-19 9.447643082e-19 9.445326917e-19 9.425377952e-19 9.423304052e-19 9.426758072e-19 9.426517202e-19 9.424760897e-19 9.401182607e-19 9.402492977e-19 9.400103342e-19 9.402427877e-19 9.399294707e-19 9.374851517e-19 9.376368347e-19 9.372778547e-19 9.374467892e-19 9.378266942e-19 9.344281022e-19 9.345206837e-19 9.350082362e-19 9.352431077e-19 9.347277482e-19 9.322371617e-19 9.326503142e-19 9.325242062e-19 9.325030022e-19 9.323188157e-19 9.301536827e-19 9.299377832e-19 9.299250422e-19 9.301208537e-19 9.301383377e-19 9.275213177e-19 9.275620982e-19 9.276982967e-19 9.272193002e-19 9.274112987e-19 9.248160872e-19 9.243492272e-19 9.246832367e-19 9.252033392e-19 9.253046162e-19 9.223239662e-19 9.221883722e-19 9.221375012e-19 9.226993607e-19 9.221785142e-19 9.197908322e-19 9.193050467e-19 9.196807667e-19 9.198848087e-19 9.197427512e-19 9.169951592e-19 9.168545432e-19 9.175902197e-19 9.174966152e-19 9.170599802e-19 9.144422162e-19 9.145535837e-19 9.147039182e-19 9.148425347e-19 9.147588347e-19 9.122610872e-19 9.123245132e-19 9.118325432e-19 9.121902677e-19 9.124408097e-19 9.092934572e-19 9.093173117e-19 9.094516967e-19 9.097326032e-19 9.092886677e-19 9.067480007e-19 9.064947152e-19 9.067176827e-19 9.069268862e-19 9.069968687e-19 9.037547492e-19 9.039412607e-19 9.041426057e-19 9.038682092e-19 9.033996752e-19 9.006484097e-19 9.005367167e-19 9.003140282e-19 8.998504697e-19 9.003471827e-19 );

linearKEMean    250 ( 2.356064854e-12 2.355482531e-12 2.35634919e-12 2.356495372e-12 2.356085116e-12 2.357007457e-12 2.356640649e-12 2.357035764e-12 2.357608218e-12 2.356805031e-12 2.357293134e-12 2.357460638e-12 2.356973545e-12 2.358073557e-12 2.358530958e-12 2.358413826e-12 2.358938728e-12 2.359698806e-12 2.35916531e-12 2.358480188e-12 2.358600055e-12 2.359540253e-12 2.359042443e-12 2.360461717e-12 2.359494442e-12 2.359820487e-12 2.359079807e-12 2.360543312e-12 2.360789439e-12 2.36044689e-12 2.360659243e-12 2.36096872e-12 2.36063757e-12 2.361936086e-12 2.360694952e-12 2.362062082e-12 2.361945766e-12 2.362815896e-12 2.362704584e-12 2.362319261e-12 2.362829564e-12 2.361905987e-12 2.362509805e-12 2.362118013e-12 2.361487758e-12 2.364056931e-12 2.363541412e-12 2.363563863e-12 2.364747655e-12 2.364074421e-12 2.364400741e-12 2.36462357e-12 2.365144777e-12 2.365642867e-12 2.363891737e-12 2.365026456e-12 2.366440112e-12 2.365776229e-12 2.36565599e-12 2.365518653e-12 2.366571674e-12 2.366389062e-12 2.365723828e-12 2.365306903e-12 2.365561778e-12 2.368505715e-12 2.367258432e-12 2.366500302e-12 2.367025386e-12 2.367533893e-12 2.368458777e-12 2.367594061e-12 2.367625222e-12 2.367357016e-12 2.368151144e-12 2.369299549e-12 2.368947335e-12 2.369866671e-12 2.369079805e-12 2.369681318e-12 2.369751488e-12 2.369710669e-12 2.370470619e-12 2.370282003e-12 2.370711139e-12 2.369633698e-12 2.369378898e-12 2.371627146e-12 2.3714094e-12 2.371516609e-12 2.371090146e-12 2.370851338e-12 2.371563447e-12 2.371497419e-12 2.373323438e-12 2.371968058e-12 2.37271108e-12 2.372130707e-12 2.373524997e-12 2.373231925e-12 2.373661829e-12 2.374240458e-12 2.374258548e-12 2.373908151e-12 2.374873709e-12 2.375167934e-12 2.375112167e-12 2.375117465e-12 2.374742215e-12 2.374993596e-12 2.376702647e-12 2.376011648e-12 2.375159035e-12 2.377801621e-12 2.376360398e-12 2.377498684e-12 2.376804936e-12 2.377758637e-12 2.375709723e-12 2.377018292e-12 2.378147718e-12 2.378949821e-12 2.377452663e-12 2.378006061e-12 2.378574748e-12 2.378906011e-12 2.379300956e-12 2.379139218e-12 2.380316821e-12 2.37939791e-12 2.379799677e-12 2.381434284e-12 2.379203999e-12 2.380430205e-12 2.38054513e-12 2.382023981e-12 2.380443778e-12 2.380690409e-12 2.380420864e-12 2.381731813e-12 2.381619137e-12 2.382432667e-12 2.381979194e-12 2.381329807e-12 2.382361396e-12 2.381453359e-12 2.383492401e-12 2.383102306e-12 2.382061201e-12 2.383782946e-12 2.384410961e-12 2.384123276e-12 2.382847517e-12 2.382394264e-12 2.383324433e-12 2.38427826e-12 2.38483536e-12 2.384703666e-12 2.383937441e-12 2.38400111e-12 2.385731425e-12 2.384918543e-12 2.386771463e-12 2.386130503e-12 2.386711162e-12 2.387750503e-12 2.386367099e-12 2.387474715e-12 2.387923292e-12 2.387817256e-12 2.387894606e-12 2.389420146e-12 2.388888997e-12 2.389293894e-12 2.387965737e-12 2.389180928e-12 2.38985413e-12 2.389176268e-12 2.388514877e-12 2.389656075e-12 2.389338533e-12 2.390062301e-12 2.389928885e-12 2.391960529e-12 2.389715406e-12 2.391614835e-12 2.392463075e-12 2.391531539e-12 2.392104598e-12 2.391483066e-12 2.39329887e-12 2.393176303e-12 2.393556021e-12 2.39424928e-12 2.393189028e-12 2.394540173e-12 2.394496337e-12 2.395301598e-12 2.394406346e-12 2.39376756e-12 2.395698984e-12 2.394747245e-12 2.395389648e-12 2.39587928e-12 2.396338732e-12 2.396017772e-12 2.395880558e-12 2.396060335e-12 2.397141449e-12 2.395824943e-12 2.397379261e-12 2.396597888e-12 2.397230432e-12 2.39750647e-12 2.397055255e-12 2.398339253e-12 2.397831056e-12 2.399624748e-12 2.398540927e-12 2.398666205e-12 2.400842811e-12 2.400428622e-12 2.400084448e-12 2.400969868e-12 2.401002932e-12 2.40257844e-12 2.40292792e-12 2.401382291e-12 2.401563883e-12 2.40315996e-12 2.403222384e-12 2.403566727e-12 2.403549578e-12 2.403797333e-12 2.402544409e-12 2.405771335e-12 2.405239732e-12 2.406003306e-12 2.406363275e-12 2.405592187e-12 2.406506412e-12 2.407412629e-12 2.408441314e-12 2.408136383e-12 2.406612051e-12 2.411083106e-12 2.410674661e-12 2.409923286e-12 2.409106633e-12 2.409797535e-12 );

momentumMean    250 ( ( 1.618876088e-16 -1.080729173e-19 -5.356927415e-20 ) ( 1.615657738e-16 -3.495237261e-19 -2.260318895e-19 ) ( 1.619953975e-16 1.171953779e-19 1.613660084e-19 ) ( 1.620933146e-16 3.284141104e-20 9.182557978e-20 ) ( 1.621040538e-16 1.434619868e-19 -2.357476408e-19 ) ( 1.641283014e-16 1.844088881e-19 -7.204577881e-19 ) ( 1.641866683e-16 1.33124412e-20 -1.44718032e-19 ) ( 1.637344399e-16 -2.27781045e-19 -3.576685648e-19 ) ( 1.636984617e-16 -8.281880185e-20 2.63077758e-19 ) ( 1.640255617e-16 -3.956879924e-20 -2.696129704e-19 ) ( 1.659579453e-16 1.420383146e-19 -1.220878418e-19 ) ( 1.661948192e-16 -7.897802474e-20 -4.169995642e-19 ) ( 1.660007295e-16 -1.138858435e-19 -6.003409879e-20 ) ( 1.662202046e-16 2.027009424e-19 3.658106564e-20 ) ( 1.663012268e-16 -3.910803812e-20 -1.796027502e-19 ) ( 1.683005715e-16 -1.952564023e-19 -1.485977863e-19 ) ( 1.685805924e-16 1.597636549e-19 -5.298327614e-20 ) ( 1.686213532e-16 -1.765877788e-19 -3.255894366e-19 ) ( 1.681629466e-16 1.524568821e-19 1.452078741e-19 ) ( 1.682037197e-16 9.923264203e-20 2.537362679e-20 ) ( 1.703793662e-16 -1.793594641e-21 -2.038968428e-19 ) ( 1.703753704e-16 -2.456823012e-19 -7.486179161e-19 ) ( 1.703405801e-16 1.973388603e-19 -4.023083644e-19 ) ( 1.705567407e-16 -7.775298966e-20 -2.047678022e-19 ) ( 1.703116866e-16 5.912739316e-20 -4.7950813e-19 ) ( 1.724306849e-16 -6.585530847e-20 -1.153183187e-19 ) ( 1.722718195e-16 -1.100231927e-19 -1.410241346e-19 ) ( 1.725696878e-16 9.028336713e-20 8.768079888e-20 ) ( 1.722228869e-16 -1.091231586e-20 -2.098327088e-19 ) ( 1.72440716e-16 8.89348776e-20 -4.009040384e-19 ) ( 1.746072414e-16 1.22917923e-19 -2.621677137e-19 ) ( 1.742730196e-16 -3.068133369e-19 -4.01680636e-19 ) ( 1.742387603e-16 8.590118857e-21 -4.759802416e-19 ) ( 1.743590596e-16 -1.166037808e-20 -3.437988194e-20 ) ( 1.743050973e-16 -1.631535977e-19 -5.854923533e-19 ) ( 1.765468213e-16 -1.362686534e-20 -3.387747171e-19 ) ( 1.765671163e-16 7.281554608e-22 -4.574643439e-19 ) ( 1.765073282e-16 3.256849148e-19 -3.527462571e-19 ) ( 1.765786826e-16 3.963582853e-19 1.78008038e-19 ) ( 1.764644124e-16 -1.582701583e-19 3.491132152e-22 ) ( 1.786315158e-16 5.476254551e-20 -3.218822168e-19 ) ( 1.785180979e-16 -9.439113442e-21 -1.836313123e-19 ) ( 1.786208428e-16 -1.421964449e-19 1.00247923e-20 ) ( 1.785371153e-16 1.568082107e-19 1.341025879e-19 ) ( 1.785105642e-16 -2.412521242e-19 -6.405556994e-19 ) ( 1.805981257e-16 -1.412765781e-19 7.238290937e-20 ) ( 1.809050672e-16 2.599004019e-19 7.545995386e-20 ) ( 1.805835149e-16 1.303228055e-19 6.90980444e-20 ) ( 1.804095338e-16 1.059074278e-19 5.44660075e-20 ) ( 1.803270415e-16 -3.384013877e-19 -6.176466006e-19 ) ( 1.821866652e-16 -5.197767865e-20 -2.671309352e-19 ) ( 1.821355151e-16 -1.334367069e-19 1.561942069e-19 ) ( 1.823528799e-16 2.107329902e-19 -5.03840993e-19 ) ( 1.825395341e-16 -1.662923912e-19 1.970536257e-19 ) ( 1.822375583e-16 2.367238693e-19 -1.769425484e-19 ) ( 1.845194099e-16 5.405031933e-20 -2.602609981e-19 ) ( 1.847419442e-16 -1.704815029e-20 -4.703769882e-20 ) ( 1.845290405e-16 7.307196305e-20 1.483554004e-19 ) ( 1.842442676e-16 2.485403831e-20 -9.215681298e-20 ) ( 1.847513331e-16 -3.81696078e-19 -4.06517093e-19 ) ( 1.863325693e-16 -7.231867579e-20 -1.151670039e-19 ) ( 1.866829805e-16 -2.768505044e-19 -4.659946278e-21 ) ( 1.866660893e-16 1.979459509e-19 3.403059605e-19 ) ( 1.866069533e-16 7.818593397e-21 -2.418426839e-19 ) ( 1.864809052e-16 1.084054458e-19 -1.316477347e-19 ) ( 1.886521551e-16 1.941427798e-19 -1.275166189e-19 ) ( 1.882755773e-16 1.443507217e-19 2.083730744e-19 ) ( 1.889218472e-16 2.103899977e-19 -3.293821399e-20 ) ( 1.885162127e-16 -6.430182923e-20 -2.923934735e-20 ) ( 1.886544036e-16 4.005135297e-20 1.869081903e-20 ) ( 1.906767075e-16 -4.26971271e-20 -1.310665765e-19 ) ( 1.902987091e-16 -2.216820338e-19 2.795887367e-19 ) ( 1.904173628e-16 -1.776352125e-20 1.238754844e-20 ) ( 1.90762122e-16 -1.445206462e-19 1.373894329e-19 ) ( 1.901573652e-16 9.210328749e-20 -3.811906763e-20 ) ( 1.926695361e-16 5.821221766e-20 4.981993596e-19 ) ( 1.923673309e-16 -5.344061551e-20 -6.154669328e-20 ) ( 1.928879034e-16 -5.315190268e-20 -1.945009805e-20 ) ( 1.92534452e-16 1.882790916e-19 2.541043567e-19 ) ( 1.924353067e-16 1.679526982e-20 1.709824221e-19 ) ( 1.946259673e-16 -1.533574768e-19 -1.171699577e-19 ) ( 1.945859558e-16 -1.306955843e-19 1.66630654e-19 ) ( 1.946700085e-16 -9.569248351e-20 6.52212284e-20 ) ( 1.944306142e-16 5.335013592e-20 1.770784712e-21 ) ( 1.947558395e-16 2.06662611e-19 1.45264764e-19 ) ( 1.96257089e-16 1.337040875e-19 -2.714658444e-19 ) ( 1.964812533e-16 -4.502075088e-22 2.217397253e-19 ) ( 1.96462723e-16 6.07820862e-20 3.212264171e-19 ) ( 1.961316534e-16 2.580535945e-19 5.356865815e-19 ) ( 1.964301095e-16 6.983679723e-20 -4.837836786e-20 ) ( 1.984413152e-16 1.743164955e-19 2.480713621e-21 ) ( 1.979803831e-16 -3.631498852e-19 3.96466947e-19 ) ( 1.983470939e-16 7.62201054e-20 2.906360116e-19 ) ( 1.981347387e-16 -1.287854652e-19 1.909299152e-19 ) ( 1.986206158e-16 -2.91116737e-19 -1.057968899e-19 ) ( 1.99831596e-16 1.243540529e-19 5.47963443e-19 ) ( 2.002164926e-16 1.05016543e-19 -2.154211435e-19 ) ( 2.003094234e-16 -9.341330928e-20 1.302238076e-19 ) ( 2.000493261e-16 8.330099865e-20 -2.902443767e-19 ) ( 1.997343829e-16 1.983984961e-21 6.928420502e-20 ) ( 2.022151924e-16 1.143023642e-19 -9.387899063e-20 ) ( 2.020230222e-16 -1.147261159e-19 2.05913129e-19 ) ( 2.019697145e-16 -5.797408038e-19 3.317557763e-19 ) ( 2.020654485e-16 5.622780669e-19 -3.654241271e-19 ) ( 2.024260289e-16 2.399864016e-19 -4.329516202e-20 ) ( 2.040040982e-16 -4.687831437e-20 2.963998841e-19 ) ( 2.04171079e-16 -1.954862611e-19 5.455345421e-19 ) ( 2.038385307e-16 6.409837143e-20 4.98688762e-19 ) ( 2.03822375e-16 1.349157382e-20 3.361048385e-19 ) ( 2.038824434e-16 2.549495698e-19 2.430550231e-21 ) ( 2.05756512e-16 1.138860781e-19 2.067597911e-19 ) ( 2.057065411e-16 -2.484211358e-19 6.101996714e-19 ) ( 2.058555879e-16 7.75683163e-20 2.247452781e-19 ) ( 2.057544268e-16 -1.351314976e-19 1.261670305e-19 ) ( 2.060310933e-16 -2.050275668e-20 -1.087371151e-20 ) ( 2.074236631e-16 1.981646324e-19 1.959939655e-19 ) ( 2.074958409e-16 7.737118847e-20 2.497782049e-20 ) ( 2.077836792e-16 -1.254391755e-19 -3.231576004e-19 ) ( 2.074571349e-16 -1.347498101e-19 4.406664162e-19 ) ( 2.076573107e-16 -5.431480532e-20 -1.868752896e-20 ) ( 2.097667593e-16 1.075284405e-19 2.206267671e-19 ) ( 2.094700064e-16 1.664672687e-19 -1.346803204e-19 ) ( 2.091637004e-16 -1.326099367e-19 2.78387824e-19 ) ( 2.093162024e-16 -1.201797778e-19 1.731120941e-20 ) ( 2.093844175e-16 -9.82131685e-20 -2.291847208e-21 ) ( 2.112445392e-16 -7.139143009e-20 2.4735982e-19 ) ( 2.113984125e-16 -1.122881818e-19 -4.330792991e-20 ) ( 2.113598731e-16 4.562802443e-20 -2.501091747e-19 ) ( 2.115676945e-16 1.097028154e-19 -1.729685302e-20 ) ( 2.11317498e-16 1.19269246e-19 4.417263582e-19 ) ( 2.131975084e-16 5.620351868e-21 1.505582683e-19 ) ( 2.133185816e-16 -1.954651743e-19 8.177336892e-20 ) ( 2.129231715e-16 -2.921316542e-19 -1.912607786e-19 ) ( 2.129750613e-16 3.227385632e-19 3.656924123e-19 ) ( 2.130541679e-16 2.027239273e-20 3.272794111e-19 ) ( 2.149052597e-16 1.426567496e-19 3.829912781e-19 ) ( 2.147659472e-16 -2.580386942e-20 1.611569954e-19 ) ( 2.14788858e-16 -7.553835787e-20 1.398580792e-19 ) ( 2.150155121e-16 5.587529348e-20 3.490362629e-19 ) ( 2.15085809e-16 -1.524666907e-19 2.489660405e-19 ) ( 2.165490578e-16 2.48874896e-19 7.482890799e-19 ) ( 2.168291993e-16 1.309404067e-19 3.574736744e-19 ) ( 2.167457745e-16 6.064405732e-20 1.025494553e-19 ) ( 2.164608534e-16 -1.288883781e-19 2.420368426e-19 ) ( 2.167256645e-16 -1.689372597e-19 8.72913592e-20 ) ( 2.184354473e-16 -3.982250416e-20 2.677669007e-19 ) ( 2.186178557e-16 -4.710007657e-20 2.870067716e-19 ) ( 2.185157802e-16 2.376384759e-20 8.262077539e-20 ) ( 2.18524074e-16 3.497855324e-19 1.721929308e-19 ) ( 2.183732128e-16 -8.885262829e-20 3.481326863e-19 ) ( 2.19873191e-16 -2.750367421e-19 1.75892496e-19 ) ( 2.201628647e-16 2.706043555e-19 3.806953417e-20 ) ( 2.202541286e-16 -7.338745372e-20 3.322051598e-19 ) ( 2.199872693e-16 5.481032782e-20 1.639759058e-19 ) ( 2.20183325e-16 -2.469612705e-20 1.068518877e-19 ) ( 2.218581009e-16 -2.111112297e-21 1.138171279e-19 ) ( 2.220636215e-16 9.536733286e-20 -8.884727796e-20 ) ( 2.21703725e-16 7.310776285e-20 4.241723144e-19 ) ( 2.220086509e-16 8.415497819e-21 2.70515302e-19 ) ( 2.218424575e-16 7.552114262e-21 -2.134232929e-19 ) ( 2.240158635e-16 1.136223449e-19 4.762689834e-19 ) ( 2.23536952e-16 -1.848167665e-19 1.543780401e-19 ) ( 2.240421792e-16 -1.272833594e-19 4.895681814e-19 ) ( 2.237651298e-16 2.240237667e-19 2.371766064e-19 ) ( 2.238869432e-16 -1.116092785e-19 4.801639187e-19 ) ( 2.257063644e-16 -2.689696514e-19 1.898494417e-19 ) ( 2.255550613e-16 9.57802705e-20 2.680379748e-19 ) ( 2.254435212e-16 1.45018196e-19 8.54209159e-19 ) ( 2.256636833e-16 -2.098058962e-19 3.32934514e-19 ) ( 2.254437673e-16 -6.702684335e-20 4.805196021e-19 ) ( 2.272553182e-16 1.379104586e-19 7.325343907e-20 ) ( 2.274562527e-16 -1.715670093e-19 1.123815178e-19 ) ( 2.272266542e-16 2.873600459e-19 3.654207666e-19 ) ( 2.273609671e-16 -1.434812204e-19 -4.561141477e-20 ) ( 2.27263114e-16 -2.546987978e-19 -1.811677903e-20 ) ( 2.28704194e-16 8.216746247e-20 2.840682634e-19 ) ( 2.2890973e-16 1.687587434e-19 2.033238098e-19 ) ( 2.288431368e-16 2.374785571e-19 5.567817401e-20 ) ( 2.29060583e-16 -8.553050772e-20 -4.657043556e-20 ) ( 2.286498474e-16 -5.574273251e-20 8.563346213e-20 ) ( 2.30301869e-16 -3.042635812e-19 -1.49982192e-19 ) ( 2.301746334e-16 6.001225193e-20 -8.425997903e-20 ) ( 2.301593604e-16 -1.395242955e-19 -1.05532988e-19 ) ( 2.306298291e-16 1.749571288e-19 1.196263133e-19 ) ( 2.303838636e-16 8.148014074e-20 -1.564105448e-19 ) ( 2.320776857e-16 -1.639864754e-19 -2.292692115e-20 ) ( 2.323235232e-16 -3.189683009e-21 -3.19652658e-20 ) ( 2.320726976e-16 -5.095336053e-20 3.084417974e-19 ) ( 2.318749455e-16 -2.701185604e-19 4.434050429e-19 ) ( 2.317998047e-16 4.658007673e-19 -7.397536316e-20 ) ( 2.336963269e-16 -2.599109212e-19 -3.863145182e-19 ) ( 2.338100171e-16 3.416628291e-19 -7.450171634e-20 ) ( 2.336104726e-16 -6.749773739e-20 -9.23433504e-20 ) ( 2.33813728e-16 8.596362648e-21 -4.594837189e-19 ) ( 2.339643181e-16 8.300466703e-20 1.224717256e-20 ) ( 2.355713985e-16 2.007583529e-19 -1.374897437e-19 ) ( 2.35198572e-16 -5.783300814e-20 -4.446109109e-19 ) ( 2.356718616e-16 -2.21057398e-19 5.997017607e-20 ) ( 2.353860901e-16 -2.734570096e-20 3.08761838e-20 ) ( 2.354288994e-16 -1.331288253e-19 4.223217209e-20 ) ( 2.369426523e-16 -1.175465299e-19 -1.022236769e-19 ) ( 2.372512587e-16 1.774361953e-19 1.766050988e-19 ) ( 2.371413553e-16 5.457610651e-20 -1.352415967e-19 ) ( 2.370478382e-16 -6.39207678e-21 1.050203386e-19 ) ( 2.370512349e-16 8.485001964e-20 5.705120307e-19 ) ( 2.389921493e-16 2.355774284e-19 -1.028425524e-19 ) ( 2.384384843e-16 -2.324322738e-19 -7.249250351e-20 ) ( 2.387651691e-16 -1.316409885e-19 -4.706823938e-19 ) ( 2.387136715e-16 -1.484123625e-19 -6.32550313e-20 ) ( 2.38551039e-16 1.363034406e-20 4.387200345e-19 ) ( 2.406950126e-16 -1.816880215e-19 -2.187176806e-20 ) ( 2.406380387e-16 3.209025497e-21 1.654686091e-20 ) ( 2.40405116e-16 1.47986083e-19 5.2189763e-20 ) ( 2.404984814e-16 1.216282754e-19 -2.93864595e-19 ) ( 2.401896905e-16 8.464536261e-20 3.620042208e-19 ) ( 2.423541272e-16 2.065486885e-19 -2.076420834e-19 ) ( 2.420196518e-16 -1.277299717e-19 7.414751027e-20 ) ( 2.424691824e-16 -1.889923436e-19 -1.35992889e-19 ) ( 2.423222144e-16 -8.152913287e-20 7.149800701e-20 ) ( 2.424241366e-16 5.9680879e-20 -2.754855657e-19 ) ( 2.442907772e-16 -3.651147981e-20 -6.024246095e-19 ) ( 2.440634569e-16 1.78766981e-20 -1.787866248e-19 ) ( 2.440647486e-16 -7.311490825e-20 7.311355798e-20 ) ( 2.440214608e-16 2.333140914e-20 1.283111192e-19 ) ( 2.43934337e-16 1.69400297e-19 -1.593340835e-19 ) ( 2.45901107e-16 1.910260533e-19 -3.707824871e-19 ) ( 2.459348122e-16 3.236414234e-19 -1.924895249e-19 ) ( 2.457066891e-16 5.308498778e-20 -1.181765824e-19 ) ( 2.456873108e-16 -1.366501682e-20 -1.130650418e-19 ) ( 2.459132248e-16 -1.893305175e-19 -3.240909384e-19 ) ( 2.475004197e-16 -1.547353553e-20 3.080250476e-20 ) ( 2.474578376e-16 9.73555159e-20 6.881699512e-20 ) ( 2.47566449e-16 5.083254051e-20 7.01106493e-20 ) ( 2.475215066e-16 -1.430773198e-19 -4.232642762e-21 ) ( 2.47344476e-16 -8.999271516e-20 -5.379304581e-19 ) ( 2.492732627e-16 -7.979205369e-20 -2.469109993e-19 ) ( 2.494675503e-16 -2.884780211e-20 4.495282452e-19 ) ( 2.493413829e-16 2.377058373e-19 9.613640477e-20 ) ( 2.494858514e-16 -2.91241678e-20 1.778558907e-19 ) ( 2.491999363e-16 1.146477863e-19 -3.784013959e-20 ) ( 2.5114353e-16 -3.326888383e-20 -1.454686727e-19 ) ( 2.512604246e-16 -1.395745797e-19 1.603056001e-19 ) ( 2.514831581e-16 -2.20811008e-20 3.662568106e-20 ) ( 2.515861371e-16 -2.816220161e-19 -1.196765915e-19 ) ( 2.5129675e-16 1.595832536e-19 -6.994913599e-20 ) ( 2.539714716e-16 6.583874226e-20 1.067382014e-19 ) ( 2.536283887e-16 7.946032863e-21 -5.305452238e-20 ) ( 2.537290236e-16 -9.208025034e-21 6.616356205e-20 ) ( 2.535125726e-16 2.516096626e-19 -1.705080242e-19 ) ( 2.537642544e-16 2.743199913e-19 8.392434039e-21 ) );

rotationalEMean 250 ( 7.764825972e-13 7.766168927e-13 7.772108837e-13 7.770713922e-13 7.772539529e-13 7.769742438e-13 7.769293403e-13 7.770050582e-13 7.769899083e-13 7.767502521e-13 7.768132867e-13 7.771610565e-13 7.773851166e-13 7.772500292e-13 7.772824351e-13 7.767289022e-13 7.772175106e-13 7.774309784e-13 7.775768647e-13 7.769115343e-13 7.771951913e-13 7.774702604e-13 7.773887994e-13 7.775856834e-13 7.772446717e-13 7.769631069e-13 7.772187959e-13 7.772591889e-13 7.774778353e-13 7.773846595e-13 7.772125615e-13 7.773338136e-13 7.769054167e-13 7.772522547e-13 7.771778909e-13 7.771081513e-13 7.776931478e-13 7.773695713e-13 7.772338285e-13 7.771233883e-13 7.770379479e-13 7.771426791e-13 7.768157896e-13 7.770315456e-13 7.768571882e-13 7.772054211e-13 7.769216692e-13 7.769341642e-13 7.772230045e-13 7.773771892e-13 7.773584216e-13 7.771701268e-13 7.771941054e-13 7.775608913e-13 7.774071136e-13 7.771006131e-13 7.781592584e-13 7.774389047e-13 7.776533558e-13 7.771916417e-13 7.775743893e-13 7.775963157e-13 7.772539491e-13 7.770888244e-13 7.771007197e-13 7.776293149e-13 7.771770671e-13 7.770499402e-13 7.768879874e-13 7.770800739e-13 7.771730067e-13 7.773223501e-13 7.772727571e-13 7.769007346e-13 7.771179465e-13 7.774674783e-13 7.774487263e-13 7.776497984e-13 7.772751305e-13 7.772594575e-13 7.770923491e-13 7.773437208e-13 7.773888988e-13 7.774333507e-13 7.769757749e-13 7.772828049e-13 7.77443156e-13 7.775645227e-13 7.775180361e-13 7.772309595e-13 7.770517687e-13 7.771577359e-13 7.7763261e-13 7.773951675e-13 7.776949327e-13 7.775935299e-13 7.774162353e-13 7.773899813e-13 7.7786446e-13 7.774228399e-13 7.772350572e-13 7.776157386e-13 7.778756401e-13 7.779127961e-13 7.778115474e-13 7.778829401e-13 7.778387879e-13 7.775819829e-13 7.777008969e-13 7.774787829e-13 7.777581618e-13 7.776451214e-13 7.77434221e-13 7.781616684e-13 7.78023908e-13 7.778377537e-13 7.778867208e-13 7.780276465e-13 7.775564254e-13 7.778922384e-13 7.777919093e-13 7.783599794e-13 7.784650541e-13 7.780967995e-13 7.779083039e-13 7.77910924e-13 7.780661753e-13 7.777689094e-13 7.78607893e-13 7.778749773e-13 7.780096313e-13 7.780638985e-13 7.77579453e-13 7.78607466e-13 7.782864941e-13 7.785721991e-13 7.782671958e-13 7.785022928e-13 7.780137826e-13 7.788530704e-13 7.785592121e-13 7.788275248e-13 7.783668938e-13 7.780152928e-13 7.787973575e-13 7.778891238e-13 7.785331261e-13 7.786029768e-13 7.783400083e-13 7.78954013e-13 7.784792301e-13 7.788221013e-13 7.782560534e-13 7.783883872e-13 7.784291693e-13 7.784862366e-13 7.782862474e-13 7.78275686e-13 7.78425063e-13 7.782565832e-13 7.782003913e-13 7.781615751e-13 7.78809661e-13 7.786209947e-13 7.783749203e-13 7.790580582e-13 7.785236852e-13 7.789036925e-13 7.789424525e-13 7.78987692e-13 7.793726008e-13 7.793804369e-13 7.7892587e-13 7.792159285e-13 7.787284977e-13 7.791833434e-13 7.792258433e-13 7.789794706e-13 7.789260965e-13 7.793957771e-13 7.789206475e-13 7.786684994e-13 7.792988919e-13 7.791595965e-13 7.791939703e-13 7.793269596e-13 7.796631624e-13 7.798079325e-13 7.793315917e-13 7.792668335e-13 7.796533845e-13 7.79492931e-13 7.798111437e-13 7.793030545e-13 7.792994387e-13 7.795872447e-13 7.799753195e-13 7.801193208e-13 7.796698739e-13 7.796349085e-13 7.796168731e-13 7.791728981e-13 7.797474192e-13 7.80157743e-13 7.801011079e-13 7.797626301e-13 7.798611973e-13 7.798252709e-13 7.803222828e-13 7.79602429e-13 7.797793142e-13 7.799458422e-13 7.799614357e-13 7.801188284e-13 7.799117814e-13 7.800070773e-13 7.801577911e-13 7.805368238e-13 7.805673303e-13 7.801694094e-13 7.803264784e-13 7.802983207e-13 7.808270704e-13 7.809353579e-13 7.80503551e-13 7.809255087e-13 7.805959517e-13 7.803019506e-13 7.80842817e-13 7.809722777e-13 7.810502047e-13 7.812067081e-13 7.80912866e-13 7.813158013e-13 7.808073185e-13 7.811108192e-13 7.815179066e-13 7.813003617e-13 7.816988891e-13 7.816256707e-13 7.821618036e-13 7.820970614e-13 7.817538489e-13 7.817029911e-13 7.816643248e-13 7.826519746e-13 7.826632403e-13 7.824129434e-13 7.820489826e-13 7.823231274e-13 );
