/*--------------------------------*- C++ -*----------------------------------*\
| =========                 |                                                 |
| \\      /  F ield         | OpenFOAM: The Open Source CFD Toolbox           |
|  \\    /   O peration     | Version:  v1706                                 |
|   \\  /    A nd           | Web:      www.OpenFOAM.com                      |
|    \\/     M anipulation  |                                                 |
\*---------------------------------------------------------------------------*/
FoamFile
{
    version     2.0;
    format      ascii;
    class       scalarField;
    location    "0/lagrangian/dsmc";
    object      ERot;
}
// * * * * * * * * * * * * * * * * * * * * * * * * * * * * * * * * * * * * * //


100000
(
8.83598133141273e-20
5.12692742299264e-20
3.43965552450602e-20
1.87311424559168e-19
2.99320182862827e-20
2.53737001914187e-19
1.93652724388336e-20
3.56571101492329e-20
2.86305289319163e-20
1.64327461522438e-19
1.42010584705895e-19
6.10967000880039e-20
2.40791661046676e-20
6.65125247835001e-20
7.59413675010379e-20
1.40584122249048e-19
5.5271977874342e-20
4.36733531030591e-20
3.56320307505241e-22
3.61200632301318e-20
5.30032105809786e-21
8.42795948477171e-20
2.45954066229474e-20
1.25304326884089e-19
9.9767908030924e-20
2.46993089561546e-21
3.98907094439581e-20
9.2689328599819e-21
4.45471047893575e-21
1.08999020625813e-19
7.6421561905927e-20
1.19578032585529e-20
6.75321027346156e-21
6.58626116894266e-20
7.94444986143636e-22
2.10242538386991e-21
1.13360243033339e-19
8.33372617388545e-20
1.49074835823082e-19
6.64658761425984e-21
1.03797562327748e-19
9.38343439304724e-20
1.10341900738375e-20
1.03837665123381e-19
5.70679262351034e-20
2.64668006352964e-19
1.25693796342039e-19
1.22204779369343e-21
3.18647494161066e-20
9.33239834793366e-20
4.7156627455878e-20
2.63123844169566e-21
9.25170301400073e-20
2.18415478752222e-20
7.05698757170858e-20
6.47650674915271e-20
6.40419056960381e-20
5.34397453621555e-20
3.99431210326608e-20
1.15156762190126e-19
4.98104487832199e-20
2.59463093914641e-21
1.39977443416852e-19
3.32510126150178e-20
4.59101029205864e-20
3.3191481859071e-20
1.99023266744753e-20
4.35324671420143e-20
1.07147486236928e-19
1.2577106100868e-20
2.16601453815712e-19
3.835125370445e-20
8.23850653861936e-20
1.42847672290048e-20
7.85327427757603e-21
2.89578668569342e-20
1.04772703645092e-19
1.87320084522969e-19
1.15559614376148e-20
2.38133831073895e-20
1.87190602298826e-19
1.498551765221e-20
1.00199764566814e-19
4.11511092264733e-20
7.01370824214643e-20
1.03694212207536e-19
8.95215986436058e-20
2.33507840233105e-20
7.86365326928569e-20
2.61145498322642e-20
3.56556399048615e-20
1.94948558451982e-19
3.11523307641973e-20
8.55346131380474e-20
5.46538800271084e-20
1.52533011394006e-20
3.54732016020068e-19
1.16813198688088e-19
1.33674593561588e-20
2.25163358183929e-20
6.91494723220222e-21
1.06597292448403e-19
1.26680633043707e-19
2.01336022282634e-20
2.36873548161674e-19
3.52159449746282e-20
3.46168665486455e-20
2.43646870718343e-19
2.04838732007439e-20
6.6335374517656e-20
2.49655029511738e-20
3.79581384645676e-22
6.71969737610169e-21
9.78508906816271e-21
9.69514510147462e-20
9.25353916889592e-20
3.91209788503235e-20
4.95360391450734e-20
9.80570171632601e-20
6.49321980732628e-20
2.00667729452563e-19
1.03488684144937e-19
4.09072866563787e-20
2.99728714697479e-21
1.00937780079322e-19
7.91967560282121e-20
1.04755977910471e-19
8.08305780713666e-20
1.41006131772339e-20
6.11625343813675e-21
8.77826572406808e-20
1.29166570492678e-19
7.97861706549085e-20
3.21676461877015e-20
7.39017443042618e-21
2.30067487341766e-20
1.3105680436618e-19
2.12907252631249e-21
7.1297095478876e-20
1.39610453189816e-20
2.97695949657142e-20
1.30596518415968e-21
1.29969348060442e-20
1.60790755993272e-21
7.50917696316302e-20
5.38840472493005e-21
1.09033162010067e-19
2.32690987520701e-20
6.16328126144938e-20
4.52284633350721e-20
3.38977834107124e-20
1.91662764184687e-19
3.17498511958245e-21
1.41964882065472e-21
1.09068138044437e-19
7.25120287665304e-21
1.72387777733078e-20
2.67510902166225e-21
4.11351681071979e-20
5.51285573466312e-20
7.19590461277687e-20
1.16765681452126e-19
1.8615644895816e-19
1.50200754290677e-19
1.15847009878298e-20
5.44413697965007e-20
2.5410952749344e-20
1.76432118567516e-20
1.21254854020085e-19
9.07051584365178e-20
1.41053548521219e-20
3.30592071166746e-19
2.66816691313373e-20
4.71302092150745e-20
7.37547757720678e-20
8.34397655259611e-20
1.56558918264552e-20
1.3466605229121e-19
4.62097496142839e-20
3.0037953584913e-20
1.14975065889381e-19
2.91630174789065e-20
7.34408495550159e-21
2.94529663711269e-20
1.66161803570985e-20
9.6099026891371e-20
7.88669412099658e-21
4.75417656211255e-20
2.04692267576071e-20
9.83542813958337e-20
3.90361805521108e-20
3.73209043079076e-20
1.25572864993598e-20
1.07750014090062e-19
5.12410953700872e-20
7.67372016575553e-20
9.55083934672333e-20
9.12687753585059e-20
2.78306072753878e-20
6.08146468318185e-21
9.89447911864212e-20
1.16811009231878e-20
9.52433074977078e-20
7.5372354342039e-20
4.76856990382075e-20
2.51957512513022e-20
1.7439998170034e-19
2.381585165084e-19
5.32858351258842e-20
5.71673417147055e-20
2.33860781869804e-21
9.07423729029473e-20
2.28739642405225e-19
6.49048073805934e-20
3.2557432053543e-20
8.87556625874632e-20
1.08276499480185e-19
1.53282542155158e-19
2.57080140072164e-20
2.1130957021032e-20
1.8230686457074e-19
6.08774637270518e-21
1.13567944956365e-19
1.35489809158827e-20
1.02153647319547e-19
3.78511457461713e-20
5.33321333425058e-20
3.56706075330528e-20
3.89918375112111e-20
6.37518070185649e-20
9.72479480440153e-20
1.86965826550328e-20
7.09228413486665e-20
1.3417987008284e-19
8.00615530805692e-20
3.90006475633785e-20
2.16664635394108e-19
1.18140656687492e-19
4.06284687531984e-19
4.51639803648178e-20
5.81752986048636e-20
6.23411701837281e-21
4.53454526545167e-20
1.16954612879167e-19
2.9724338612115e-20
2.85607876877926e-20
1.10411923478862e-19
5.1738855899125e-20
6.98140110277968e-20
3.69633031464644e-20
6.38704121625773e-20
2.79377641392756e-20
4.39702476917733e-20
1.03616613817059e-19
7.90718214163529e-20
3.09338555850915e-21
3.18974528522563e-20
1.0382327035242e-19
9.1137667279689e-20
2.71635116079355e-20
3.17154059458787e-20
4.93793663769353e-21
3.13176556235524e-20
4.9650449979154e-20
1.03347179347986e-21
5.58304500840297e-20
1.04051493198961e-20
1.02216203452543e-19
4.19649961281266e-21
2.47641678933672e-20
1.16509258376573e-20
6.73809589907745e-20
5.76674896207686e-20
4.5353995610242e-20
2.31468699965025e-20
1.28186343026701e-19
4.67657720526335e-20
2.15299512293088e-19
2.09178288307188e-19
3.10114419575826e-20
3.71728217184501e-20
1.2849511001591e-19
1.39842118319745e-20
1.2300914449296e-19
3.27171308621315e-20
8.51349712823885e-20
5.24619747487791e-21
8.37446697402454e-21
7.18636128038361e-20
2.08572722720341e-20
5.48664429291922e-21
2.88209386580075e-19
2.74327600658107e-20
8.15740080430349e-20
1.31391171688062e-19
2.92534309643478e-20
1.52249420747274e-20
2.62838622637683e-20
2.82148324212666e-20
5.99619877399832e-20
1.90577048757008e-20
6.67825491968176e-20
1.33724584259149e-20
3.6825869850986e-21
2.14111260862326e-20
1.07911019259335e-19
2.59600005736852e-20
4.05183927219852e-20
5.95122632130981e-20
2.27708822380117e-20
1.67972582667038e-19
1.91811275737062e-20
3.25521325493536e-20
1.01258985747426e-19
6.49193735897816e-20
7.67794361677677e-20
7.99283468659357e-20
4.46298649576073e-20
4.47586753152823e-20
1.96957273455092e-19
1.41542452239005e-19
3.55187799997337e-20
8.57531022279187e-20
8.27474844803543e-21
8.33057828801393e-20
3.5410761616855e-20
8.36167716318645e-20
5.16432380917672e-20
3.01701825226599e-20
3.89236981475013e-21
4.39541149067885e-20
1.76220193112606e-20
1.6092823410828e-20
8.3954905517892e-20
1.28980615942956e-19
1.05341600586207e-19
1.05142682128173e-20
4.03364215248765e-20
4.98478759565367e-20
6.98313784211881e-20
3.99451701998383e-20
7.45271787910634e-20
4.94230314606437e-20
3.61058950703148e-20
1.68561340837408e-20
2.94098972743765e-19
4.35390514249208e-20
2.04925852208765e-20
4.57116303544118e-20
5.3430434827387e-20
1.18118193154129e-20
3.62295918562457e-20
3.13289678685119e-20
1.38085263212713e-19
2.48465350484758e-20
1.63638660051065e-19
6.80733496815801e-20
6.54474413295619e-20
8.33255518102866e-21
4.80180753644004e-20
3.88873360344511e-19
2.71424803077824e-20
1.79791103685189e-20
1.07320874562062e-19
4.37407214763026e-20
1.07826525152817e-19
1.40745520296878e-19
1.21239808129218e-19
2.27668090324322e-20
1.64797823453183e-20
3.00523671787788e-20
1.09133938471246e-21
3.97825432960505e-20
1.14102115757561e-19
3.88222891370159e-20
4.74106218968989e-20
7.59758219612797e-20
6.75831029416669e-20
1.27020138235623e-19
2.37484543966881e-21
2.52100942457687e-20
1.3195033800274e-19
1.35693401708539e-20
1.20377939776647e-19
3.29861179860747e-20
1.02298898665814e-19
1.57780810756616e-20
6.27839064845991e-21
4.06194034865246e-20
4.36429258722273e-20
4.31768076991022e-20
1.30039619393052e-19
7.17553021864016e-20
1.23157615253035e-19
9.54316117682155e-21
3.80625626239244e-20
1.97663143899135e-20
2.25903996907649e-20
4.27780548013838e-20
1.18623263083059e-19
1.70215823844688e-20
9.26854549753504e-21
2.94446132927654e-20
1.47904994679282e-19
1.57633894098199e-19
9.25994103278738e-20
1.06098478534375e-19
5.87823459843246e-20
1.55270108581779e-20
3.0964843054157e-20
3.59862443219676e-20
7.09030796416609e-20
1.85971033475742e-19
8.94330666221364e-21
1.12610296380013e-19
7.59988699277608e-20
6.97133442918083e-20
9.10622325757399e-20
2.25518058157103e-19
1.49130230530856e-19
7.1527432863067e-20
1.05588599756218e-19
3.93318441708068e-22
2.23304249113921e-22
1.65078041897709e-19
1.20477940390349e-21
1.30294754999639e-20
1.62883096809593e-19
2.16697469612752e-20
9.17272862237637e-20
3.28304917348783e-20
9.10769440671442e-22
5.31597043591463e-20
8.27440465172022e-21
1.17829241629083e-19
1.05958845203515e-19
2.42682314194971e-20
1.74678289921591e-19
1.08428416607198e-19
4.89704555606888e-20
1.20548381588203e-19
1.02537852059175e-20
1.91389190994811e-19
2.8788456668847e-20
2.47556279859521e-20
2.49066816410403e-19
5.70263802472251e-20
2.59820490495452e-22
4.20642670337508e-20
4.02905544981867e-20
4.7723492054083e-21
9.54179343757169e-20
1.89044623166891e-21
2.01613359334074e-20
1.18199467597656e-19
1.68175014909036e-20
8.77361869415472e-20
2.43799332044327e-19
5.55609185321491e-20
4.20491211025146e-22
1.20435140243931e-19
9.96044902752023e-20
2.96753713363829e-20
1.52833006446235e-19
3.67788857214969e-19
5.27360300926001e-21
4.849403713955e-20
1.07704879741686e-19
1.26120133670452e-19
3.9926532491967e-20
2.13839361862292e-19
2.25621742323738e-20
1.27859146018525e-19
1.39586520678917e-19
2.72767961673997e-20
8.0486880130793e-21
5.41822250111949e-20
1.50070741619625e-20
2.39039893220768e-21
1.96913835312643e-20
2.13721112045957e-19
1.90556051233943e-20
1.40311882071468e-20
5.13628349894165e-20
1.46134958379405e-20
1.42938908236549e-19
5.96837466348814e-20
9.09777192162007e-20
9.7607436530102e-21
2.23615486276118e-19
1.4118415969762e-20
1.95259237733608e-20
1.36637855481779e-19
2.06365915805243e-19
1.46786741057224e-20
9.10994426551937e-20
1.40139128316544e-20
2.05952410193114e-20
5.69761653001207e-20
1.74758361983432e-20
1.3450445768868e-20
4.2795911967856e-20
9.6303440174992e-20
8.45682469954881e-20
1.10106747866299e-19
1.78172621714224e-20
3.150455609834e-19
5.17155926857746e-21
3.01865517556379e-22
2.10169956048423e-19
1.03824025860029e-19
3.37935745870203e-20
8.24514275735004e-20
9.20866973970138e-20
8.27903509793132e-20
1.50611258402579e-19
1.7827282579518e-22
7.90460157777592e-20
2.03985311546298e-19
7.43960039662266e-20
7.5131573222426e-20
4.05156459840371e-21
9.23189617868577e-20
5.40348694297871e-20
3.42962573456833e-21
1.23877294759351e-20
9.93179785602849e-20
1.13439103634637e-19
1.17953579611856e-19
1.47770171058051e-20
1.69209357484717e-20
1.34366253004735e-20
2.00618634606911e-19
7.67808829129424e-20
2.62782075851944e-19
4.10195131016376e-20
5.52417520011375e-20
8.31403506761234e-21
2.69781650091848e-20
2.01444240316606e-20
8.32966627014104e-21
3.93310633752053e-20
1.33805469983596e-19
5.1861484427424e-21
2.90429725158362e-21
1.08660503044782e-19
4.97565684808325e-20
2.07057662674989e-20
5.90730704961871e-20
1.84596126505742e-20
4.12411802911109e-20
2.35599918309416e-19
4.85195343067834e-20
2.03636631494782e-20
7.40295273423724e-20
1.62734935746273e-19
9.70095086183813e-20
2.25372604425484e-20
2.28872841585201e-20
1.08935130484922e-19
2.76809628787991e-20
3.84881738707836e-22
2.19820801286785e-21
3.07967289557414e-20
1.7889653167764e-21
2.27285553650023e-19
7.0797361143386e-21
2.82811424254181e-20
2.79635577925858e-20
4.13719872387951e-21
8.29329065531639e-20
4.17771009814914e-20
1.34490024146325e-22
5.20424941625913e-20
1.0656358457406e-20
1.54588332870756e-20
2.35146601691296e-20
5.3129346922407e-20
3.17129966438516e-21
1.49479497990023e-19
4.99459737465398e-20
1.40982675494673e-20
3.29032643737633e-20
1.68699970165333e-19
9.84887584061884e-20
2.81491681850184e-20
1.16171856082674e-19
6.97704568856741e-20
7.30484912022876e-20
1.09499791024213e-19
3.00427809660289e-19
2.63177146326192e-19
3.65401600978861e-20
9.27764350410738e-22
8.60690088399376e-21
1.71796596697338e-20
3.4621819445597e-20
5.49698689719886e-20
5.56941911167502e-20
1.33997971078278e-19
1.63214178282885e-20
1.20294978970878e-19
1.36196900206684e-20
3.01789419383217e-19
4.77590734704688e-21
4.34887704316698e-20
7.12532426765608e-20
1.07814687524526e-19
8.67574325206788e-21
5.01279929894149e-20
1.95513893740284e-19
3.50366000834249e-20
1.2795485766728e-19
1.663068151087e-21
9.82889652045791e-20
5.25894057633248e-20
1.2797240439693e-20
3.93595571679486e-20
1.13661836016329e-20
3.10872439711335e-19
1.287330213275e-19
1.10415639087051e-19
1.38808988229505e-19
1.02698071247358e-19
2.96365830159637e-21
4.51048586039979e-21
9.64875854703358e-20
2.92553622831965e-21
1.50979712804286e-19
4.58150827364057e-20
4.28881829008694e-20
6.64784264357948e-20
2.47600514987501e-19
2.0168419346319e-19
3.74843166870442e-20
1.22530240629132e-20
7.59646071572515e-20
1.11935264667455e-19
3.8793533856486e-20
5.54134546299565e-20
1.53227313857647e-19
1.76182991134119e-20
3.46013090455687e-20
4.37578450995658e-20
4.61623748329774e-20
8.41611418888746e-20
1.2036186949094e-19
7.54712866360857e-20
4.46109737172079e-20
9.45349709417835e-21
1.925558636567e-19
9.68348462836574e-20
1.3486741764947e-20
2.08804953301648e-20
6.94507533038631e-20
1.01533960526656e-19
3.71319764308641e-20
1.66869497436026e-20
1.35109247567712e-20
4.8616413453266e-20
1.02033908214813e-19
6.91570129407322e-20
4.88048679619542e-20
7.44757842998684e-20
9.68245836575507e-20
2.57156029844084e-21
5.68334691679041e-20
2.20951260264457e-19
1.35733582683363e-19
5.10883582368575e-20
1.85635623418434e-19
6.91208795343472e-20
4.69546749174694e-20
5.21386250339003e-20
1.42436827320462e-19
7.17441187235427e-20
5.72646969618979e-20
3.39421101520069e-20
5.08240340616115e-20
4.4495651217737e-20
1.28413535751981e-19
1.67140701184354e-19
3.61505795434003e-21
1.43646080007188e-20
1.77057644286209e-19
6.51767441442595e-20
3.21558958444839e-20
8.00093736393396e-22
1.96608360095482e-21
3.32177334245143e-20
3.19260680580147e-20
1.39192686512281e-20
5.20613619083853e-20
3.74744702287091e-20
5.41275512318791e-20
3.87285854755164e-21
1.95621121164737e-20
2.08423233503319e-19
2.87754333333539e-20
1.06674337249207e-19
1.42702253809243e-19
1.10232439947105e-20
1.61763758524726e-20
5.21618442623945e-20
3.05402355007111e-20
2.84532949807309e-20
2.16127279904102e-19
7.41358447722063e-21
2.52072131606142e-20
5.23020092911581e-20
1.45479842074997e-19
1.03292875692642e-19
1.64808371595752e-19
5.97987214204359e-20
1.09985783323975e-19
2.36572862379342e-19
3.22711439633374e-20
3.33507018903804e-20
7.96166406192097e-20
1.29252696070992e-19
3.75275660826915e-20
9.85151008242675e-20
9.89130846184804e-20
4.561199225923e-20
2.5547163628823e-20
8.76391332720681e-20
8.23579318113567e-20
6.79514681919626e-20
6.01149892695035e-20
5.34508920759481e-20
2.44124089872942e-21
2.83580413448282e-20
1.92373615387778e-21
8.43139871975263e-21
1.56077645011319e-19
1.09333292502128e-20
4.13833256433145e-20
1.38083786487214e-20
1.69030675846643e-19
9.6690938306519e-20
5.59101069784261e-20
6.78595181090035e-20
6.60191073776034e-20
1.06191023127183e-19
5.54754162169867e-19
9.05695307524403e-23
3.05117923227467e-21
4.69832044857626e-20
1.52281071206304e-19
9.54138778358174e-21
5.76544415020147e-20
5.55880770582727e-20
4.30416173420375e-20
3.648666474429e-20
1.08202335546541e-19
1.81530902637237e-20
7.17407307379766e-21
2.16655191520361e-19
5.74431933354115e-20
2.21604009503051e-19
4.64435059337138e-20
1.39330091154027e-20
5.08407728190147e-20
4.07818213502839e-20
3.87747453011932e-20
1.06963191118813e-19
1.41930246839017e-19
7.50958711316832e-20
8.291219697859e-21
3.4760035042335e-20
2.58762827965456e-19
7.98812459992846e-20
7.45909195079555e-20
9.88967476114965e-20
4.04907574310281e-21
2.90821774122573e-20
2.38606944196382e-20
6.1713103893687e-20
7.7447219350554e-20
2.28670065286904e-21
8.1773478806179e-21
1.69037236572136e-20
1.08752235355008e-20
9.27548015329705e-20
3.57078525625497e-20
5.89452924015081e-21
1.09416607721082e-19
1.54901177226358e-19
1.61785533589155e-19
4.70408372331805e-20
1.41663453639798e-19
2.0175080551561e-19
3.93618989244772e-20
1.79530799564257e-19
1.04169722390685e-19
1.63152714237307e-20
3.51328244514224e-20
2.34031869960515e-20
7.37264303847138e-20
2.92987171677403e-21
6.7773623002894e-20
2.01272978381477e-19
5.3073656125884e-20
2.1043071069583e-21
9.08168059227283e-21
1.33850417216151e-21
5.36168143842484e-20
1.19216733152055e-19
6.90994879712091e-20
1.18069217277699e-20
3.17899008672945e-20
6.46307445074894e-21
2.35011768123095e-19
1.68100774395866e-19
3.47062379343081e-20
1.42423737830438e-20
4.27132090824562e-20
3.32074483352355e-21
1.01586884427042e-19
9.15193919256497e-20
1.47098955341685e-20
5.15719212645359e-20
1.22871180839203e-19
3.03759442926831e-20
6.28759053497139e-20
1.94138177108924e-19
1.82016535808367e-20
1.55414001362002e-19
9.26354211719481e-21
8.04458455765929e-20
4.24618342689673e-20
1.48839953781201e-21
2.02087530603611e-19
2.84764472810246e-20
6.78766694236205e-20
4.25668214301885e-21
7.20470230842785e-20
1.05142017644988e-20
4.19806231713629e-21
5.53829003206153e-20
9.05913548676085e-20
3.91682633692388e-20
4.77401702475401e-21
1.43793445480762e-20
2.32174595683395e-20
1.76794066973738e-20
1.9522324287936e-19
3.11762077033469e-19
5.66982019457876e-20
7.05091742012512e-20
6.26379976607675e-20
6.75250449713254e-20
2.06816548833399e-19
3.5136453016358e-20
2.06228475189196e-19
1.77348221504591e-19
1.47731643907301e-19
7.30787564095769e-20
8.33746836612469e-20
1.52212850034899e-20
5.44860860768087e-20
2.78805966565269e-20
1.2974081886157e-19
1.32267900083644e-20
5.43023355180002e-20
1.74637052756641e-20
1.70039636661786e-20
6.39650781531903e-20
2.70933935462334e-20
8.59711010968886e-21
5.9386632255932e-21
1.2529937868035e-20
2.1625970351001e-20
9.74828405879454e-20
3.2853518602887e-19
3.48387436712167e-19
5.69872494433313e-20
2.02578442141573e-20
1.44195069968943e-22
2.76573665592627e-19
1.77232262162503e-19
4.55133996795935e-20
5.36480176087383e-22
1.27079126481182e-20
2.34251353040312e-19
4.63699547698995e-19
9.59432210213225e-21
9.24657776037814e-21
7.89848368440417e-20
1.44816409125771e-20
1.75688441617278e-20
6.38867897378492e-20
2.39341887182988e-20
9.0432674437816e-20
1.39162138772563e-19
1.51173907525769e-19
3.81063334582298e-20
4.17062933299087e-20
1.49901084322971e-19
9.54279905556235e-20
2.29404347257476e-19
5.14016585228764e-20
8.7643349791597e-20
1.67357982787946e-19
1.42005461608509e-19
1.41490415813024e-21
5.33679987039172e-20
1.1094581577906e-20
2.04973425784691e-20
1.30925654312964e-19
3.60664503508443e-20
1.45808749526961e-19
1.13740820341493e-19
1.26676516994596e-19
6.91872408253233e-22
5.40550408509296e-20
1.85047186628119e-19
2.55453191904623e-20
7.47391121388773e-20
7.68673408251279e-20
2.00853739935818e-20
5.71278615900497e-20
3.5721948975244e-20
5.01871133697355e-21
4.12386443682501e-20
6.55755612689127e-20
3.30368965117612e-20
9.62995740985129e-21
2.21613808064889e-20
9.40521828142489e-20
3.48920674369414e-22
6.32466124350979e-20
3.57271219608125e-20
1.10201939345534e-19
4.07529167428585e-20
7.03708253233519e-20
6.8716609346879e-20
2.78604530454243e-20
1.26390985162351e-19
1.19922635152633e-20
8.69309387678314e-21
6.74759154772079e-20
1.1361496757047e-22
1.65852490377996e-19
8.3910479801512e-20
1.10412575999194e-19
5.31486090473837e-20
1.64739739530138e-19
2.09479410016233e-19
5.24484643207757e-20
1.16295933538038e-20
2.01867987984565e-20
2.80911901388365e-20
7.46561390842003e-20
9.06134434732466e-20
1.88109915417131e-19
1.06164985125438e-19
3.47234264502582e-21
8.14820360593359e-21
2.88676050105363e-19
3.56771073115944e-20
2.45200176803725e-21
6.04158699592986e-21
1.45587025324999e-19
7.10697630272503e-20
1.00952748631578e-20
1.49561362484774e-19
3.64758519383508e-20
8.7443897755327e-20
2.69982027184883e-20
6.1797379372329e-20
1.58932625449322e-20
3.68926282962162e-21
1.83747149389066e-19
8.55536488921281e-20
1.19566307943867e-20
1.88109313112514e-19
2.55774862635846e-20
6.45880370182368e-20
2.09687164559105e-19
3.67388983071387e-21
7.81903159536075e-20
1.30062788826263e-19
1.79185470429736e-19
1.23877693825782e-21
1.03187269444421e-19
1.47526832771444e-19
2.80635101685605e-20
5.50586844485477e-20
1.21991084361975e-19
6.98679604367942e-20
2.13323632195848e-19
3.78452443315321e-20
1.85500854141788e-20
6.25619804598933e-21
1.59884919749352e-20
3.16727822242002e-21
4.90849534659746e-20
2.18146126158539e-20
2.06451989421511e-21
8.26910911318801e-21
3.58769400331315e-20
1.42137680965117e-19
7.50088174144206e-20
9.10403699644148e-21
7.58661392714955e-22
1.05334629809372e-19
2.0321527873724e-20
1.68027608608574e-20
3.4738889861782e-20
8.83516820736183e-21
9.50778192765474e-20
7.50546790417315e-20
6.87635684576112e-20
8.59875235091344e-20
6.35230811436741e-20
5.94345928578644e-20
9.31227437567017e-20
1.30628005240318e-19
1.38629085451032e-19
5.57740665314046e-20
2.09192921107686e-21
1.48401221029814e-19
1.52196995789269e-20
6.14920795838984e-21
5.08556281448112e-20
1.37026401999688e-19
8.63153088700548e-20
7.80538777808264e-20
9.83020594543553e-20
8.2250280616863e-21
3.26361785364944e-21
8.51242309267526e-21
2.90746296152546e-20
4.56197345294077e-20
3.89387394900042e-20
3.79016751359411e-20
3.57937339106609e-20
1.02560624167299e-20
2.38416944615489e-20
1.32295380701468e-19
3.08234539445325e-20
1.6477791415939e-19
1.58782624461573e-20
6.69779009328327e-20
5.88566428602823e-20
1.22606866114728e-19
9.8554217006917e-20
3.98836689236043e-20
8.07257566246964e-20
3.11592662315669e-20
1.0606124017865e-19
1.26779892922408e-19
1.96766961378554e-20
8.11236575707965e-20
2.15923477730266e-20
3.86558009559895e-21
8.99122478870074e-21
8.49528599290201e-21
1.57641670763465e-19
1.29556484701432e-19
1.0596307724515e-21
6.63634927742108e-20
2.92194639381041e-20
1.41328318175612e-20
8.90484159225996e-20
1.88857073809363e-19
5.56683348197686e-20
7.49338029922532e-21
1.73350003222795e-19
4.45455097913818e-20
1.8160256091174e-19
4.43736455088165e-20
4.94921374552844e-21
4.47989357512655e-21
1.58008011730963e-19
3.14289836645058e-19
8.55579269820841e-20
7.69412407913293e-20
7.47715125493743e-20
1.65645420611387e-20
4.10628804953898e-20
1.15937562722075e-19
6.09959241397897e-20
1.40938335521371e-20
1.90993665793397e-20
6.36680271374729e-20
1.78359490123508e-20
2.5771529424356e-19
1.75992889865655e-19
1.75709893333466e-20
3.73897595699868e-21
4.52530763227935e-21
1.17000297870436e-21
1.38369733279694e-19
1.91578217755538e-20
2.02548436430009e-20
5.49349785821519e-22
2.65701021523169e-20
1.24291515899427e-19
1.07159725207558e-19
4.95961746104865e-21
3.94582658498246e-20
1.30488686432104e-19
2.02998034043221e-19
4.42745988030319e-20
2.00974717479712e-20
2.53400711186589e-19
2.65799789565234e-19
8.65826738830667e-20
6.4250895852363e-20
7.67091823150952e-20
1.58700002612814e-19
2.15235338474728e-25
2.11429896184915e-19
9.53005735252425e-20
4.81896149247047e-20
7.80603195006874e-20
3.64948439129489e-20
4.01892947795961e-21
5.74446608062323e-20
4.89338926926109e-20
9.66344387458026e-20
9.33230782771022e-20
7.09799526410897e-20
9.28939945940216e-21
7.97067398930718e-20
3.87049068876927e-20
5.16885238423284e-20
4.20267277615846e-21
8.43887459083171e-20
3.12226983252823e-20
8.05148719071392e-20
9.7277534885262e-20
1.72662359033811e-20
4.84180831358648e-20
1.62941336875689e-19
2.16858560283805e-21
2.04252908337353e-20
3.04960937847432e-20
8.36993092447943e-21
1.32797581852026e-19
1.47844158020759e-20
5.54086616001703e-20
1.3272727674864e-19
2.41974323204787e-20
2.805467885186e-20
2.55103103931733e-20
8.91681019685436e-20
8.49378763609962e-20
4.57898378976471e-20
3.46579986095414e-20
2.38398126567844e-21
3.9146041298225e-20
2.46046857943409e-20
9.11598991627588e-20
4.2288375478046e-20
6.70311706422371e-21
2.04241348763604e-20
2.14709400301467e-19
4.36090874342401e-20
4.58453182268801e-20
3.70116566219636e-20
3.6171005933006e-20
3.07190813320224e-19
1.67109452261104e-19
6.23057324667079e-20
1.62818465498265e-19
7.02819262085618e-20
1.60794485737165e-19
3.96118313763001e-20
8.98209389478104e-21
5.36766323748226e-20
1.92169134803348e-19
7.71836699106364e-20
4.46592413993849e-20
4.53202023448032e-20
5.27495217315659e-20
1.48997778860839e-19
5.47165997238855e-20
1.05036894225555e-20
4.23762995278505e-20
4.52293738895751e-20
7.82339723412891e-20
7.26616938936324e-20
8.20595503919555e-20
1.0671063485445e-19
1.23080960820229e-19
3.22067018453926e-20
2.02171416531191e-20
3.61835431862193e-20
3.09786860782686e-20
2.18639362672101e-19
1.70992887492952e-19
9.48731545745726e-22
2.40423056284088e-19
7.46765332636352e-20
1.0634918302828e-20
7.62566083512824e-20
1.45016606509159e-19
4.10331778331925e-20
1.12745195432313e-19
7.59246307819941e-21
1.20292238450123e-20
4.14704699119642e-20
3.45948163249839e-20
8.17781163951089e-21
6.64136177941027e-21
3.97068476353903e-20
2.48068363244746e-19
4.89450387480832e-20
1.7932139124748e-20
2.02625534762756e-19
2.56175949933017e-21
1.22556218255117e-19
6.88577334300558e-20
1.06781523369202e-19
1.11648519105945e-19
9.49885097875615e-20
3.00694403311736e-20
1.88087337973694e-20
6.6478332691166e-20
1.07872835122025e-19
2.15856325142312e-20
2.21653950268689e-20
1.11815347317476e-19
3.93716226950069e-20
3.07511392746972e-20
3.35741214190087e-20
4.85048111311598e-20
1.2925408649877e-19
6.94477159645942e-21
2.41122276047353e-19
2.82575598774528e-19
1.92215883487524e-19
1.55887918455748e-19
7.04351820204009e-21
9.58866969150368e-20
7.87480779358423e-20
2.0972437877837e-19
4.55479665146251e-20
3.77828251114355e-20
4.45040650071217e-21
1.1650923779129e-20
9.40971979175984e-20
2.1895618462495e-20
8.37457839871216e-20
8.68304495026622e-20
4.59108566768835e-19
1.94795393552186e-20
5.95812668783663e-20
1.45420902404739e-20
7.37790480348823e-21
1.00058765883802e-19
5.47019007238603e-20
1.36455518106035e-19
9.83498131003473e-20
2.29896754091533e-19
3.98594228489822e-20
2.40338357222252e-20
7.21807467340153e-21
7.49931003106558e-22
5.12360164167087e-20
1.85950454657861e-20
2.37819326553416e-20
8.46634398606525e-20
1.56444923934824e-19
1.21889888456238e-20
2.89173922064128e-20
2.48192929761047e-19
2.45882035601012e-20
1.11389704168168e-19
3.60328726932558e-20
1.22470988471102e-19
5.73853616828561e-20
6.50547704818571e-20
5.43132394478518e-20
5.75754247706247e-21
3.42584559323526e-19
1.41799940091865e-20
6.06287781796151e-20
8.54935906067194e-20
9.52972959279743e-20
1.46011167030161e-19
8.97632680689248e-21
6.38278172560815e-20
1.01329016528607e-19
4.70318437032378e-21
9.87498842895887e-20
1.02731842626745e-21
1.99494440086034e-19
1.01456604714289e-19
1.80766999231134e-20
1.35216870350079e-19
2.97758204079854e-20
2.11132890346559e-20
2.06271106595798e-19
1.89682583088794e-19
1.4236146390418e-21
1.8146855932374e-20
6.33845304050769e-20
1.03098269105198e-19
9.2947154780182e-21
1.94570497874333e-20
3.24599997593351e-20
1.27716032612982e-19
6.48239819022918e-20
1.07649324677592e-19
3.88615801529725e-20
4.97568613576807e-20
2.06918236397288e-20
4.14811466501998e-20
6.875072906336e-21
3.49154219996126e-20
2.07322080166541e-19
7.91322346770765e-20
2.0454303647113e-19
2.55696626989039e-20
3.17974640605935e-20
9.71319283225566e-21
3.30326475310764e-20
3.94336296671276e-20
6.49531715238129e-20
4.22665080060362e-20
3.42958508961526e-20
2.23865464777427e-19
1.02900204524689e-19
7.66683291002835e-20
4.15922793471272e-20
4.50437570033132e-20
1.55722486485552e-20
2.9183454812784e-20
9.32596015862542e-21
1.09315700546531e-19
1.33590988190351e-19
2.25136590916631e-19
1.84952826163585e-19
8.53549697896868e-20
1.131325306006e-20
3.58432653432154e-20
1.27182842373959e-19
1.07463387879904e-20
1.12957677934852e-19
3.9928449610518e-20
9.3672494397971e-20
6.75883506492707e-20
2.55460975497185e-19
1.52493910071391e-20
1.98165615222352e-20
1.08667636315748e-20
4.15524558965569e-21
1.58352494245879e-19
1.52509378441532e-19
2.58936755872741e-20
1.91334267199453e-21
1.48885143930717e-19
1.3453051440567e-20
1.97359578750922e-20
5.00724713624817e-20
7.85405560491387e-20
1.92367133561978e-20
7.98078316614562e-20
1.99333143223941e-19
9.04812659417699e-20
1.22153862213016e-20
5.99123998967328e-21
9.37458746531474e-21
8.61128583243263e-20
5.09458212137818e-20
8.47291795535199e-20
6.27951717128374e-20
5.15862691917876e-20
5.99817985706583e-21
5.8545683118071e-20
2.7966045559543e-20
1.02124305003784e-20
4.15267651344741e-20
3.22117798687158e-20
2.82320321499745e-21
3.7815092644246e-20
1.26028814619481e-19
5.28888743967746e-20
8.25551479651889e-20
4.18302273594345e-20
1.38328140280812e-19
2.18367102191757e-20
7.65005260358481e-21
1.13648180728182e-19
1.60676946027539e-20
3.36915377949302e-20
2.78468908265249e-20
5.04120418997899e-20
7.26133650619541e-20
2.6556869917783e-20
3.04582704293356e-20
7.2449216343207e-20
8.50398263086686e-20