/*--------------------------------*- C++ -*----------------------------------*\
| =========                 |                                                 |
| \\      /  F ield         | OpenFOAM: The Open Source CFD Toolbox           |
|  \\    /   O peration     | Version:  v1706                                 |
|   \\  /    A nd           | Web:      www.OpenFOAM.com                      |
|    \\/     M anipulation  |                                                 |
\*---------------------------------------------------------------------------*/
FoamFile
{
    version     2.0;
    format      ascii;
    class       scalarField;
    location    "0/lagrangian/dsmc";
    object      ERot;
}
// * * * * * * * * * * * * * * * * * * * * * * * * * * * * * * * * * * * * * //


47581
(
2.11234910484551e-20
4.41659426120009e-20
1.51532233907787e-20
6.66876252031413e-22
3.29079838646902e-21
4.63582885615608e-21
2.13679962167832e-20
1.15396930863545e-20
3.42888293089425e-20
3.03827169432435e-20
9.79948683434671e-21
3.618295320695e-21
1.38148649645657e-19
1.33613089335444e-20
2.4050218756481e-20
5.57630247601442e-21
5.39129820743907e-20
5.76515556811627e-20
2.54111440113791e-20
1.21183064637103e-20
2.56488811803071e-20
3.86339253719733e-20
4.14682322566629e-20
7.92553601007301e-23
1.80229841071287e-20
1.89214528874883e-20
1.6521681938441e-19
6.14720486995999e-21
4.33217313317959e-20
1.27498669128131e-20
2.52708734878896e-20
1.2850197011176e-20
2.58441323022574e-20
2.32676581321293e-19
7.07534105707536e-20
2.54261218027077e-20
1.30477969851424e-20
3.60670310824344e-20
6.82958114522181e-20
1.325033997652e-20
6.75651481543087e-22
5.63604376869012e-20
3.53218620201163e-21
1.47518830469879e-20
3.5268571701156e-20
3.37129444774793e-21
1.86855440794918e-20
4.64827215865159e-21
1.4227933018818e-20
1.15052136239319e-21
3.74414342952132e-20
8.67467990074098e-21
1.35426680209593e-21
5.27222254521766e-21
6.38764568254431e-20
1.88262149371269e-20
3.60719779291653e-20
1.21619510300853e-19
1.472558052098e-20
4.02575606439747e-20
1.67069500950504e-20
9.24660885772636e-20
3.6923981107574e-20
4.7629776261406e-21
3.59937762976866e-20
9.51316789762168e-21
1.26168805571015e-20
3.85934729516574e-20
1.01451893308297e-20
1.90260030597432e-21
6.16129196325089e-21
4.76143792528541e-20
5.5431513494627e-21
3.82923548538089e-20
6.92171282934671e-21
5.68980572406155e-20
2.37843019059837e-20
2.51124394377368e-20
3.86746479621743e-22
3.58333690448439e-20
2.72931933285379e-22
9.91152109549897e-21
2.36619839439297e-20
3.0260761787305e-20
5.25626884561464e-21
1.03250558499584e-22
9.49051545014075e-21
1.07623358998968e-19
1.02730199790197e-20
1.07384917791668e-20
5.62378146993491e-20
2.82708781120773e-20
1.60961431367712e-20
3.38083745552326e-21
6.25247534091716e-20
8.31612828500814e-20
4.73434911387485e-20
1.43013542690112e-20
2.84780671621766e-20
2.88013218518082e-22
3.10755611263928e-20
3.4416131149555e-20
4.47952031798441e-20
1.46723362423665e-19
7.58467584617864e-21
1.63122840907146e-20
1.55426568059136e-20
1.10155410561335e-20
2.55140926868079e-20
1.72668397355747e-20
3.3706578913623e-20
4.94863367008333e-20
7.84847177417803e-20
1.33668937388159e-20
1.6615908066576e-20
1.61271735071141e-20
2.33754728773035e-20
7.44138541875068e-20
2.21501442079858e-20
1.24444960240272e-20
7.95633176924237e-20
6.56050927240328e-20
1.13525321556862e-21
1.64600759413228e-20
3.80257850879106e-20
4.8590533574556e-20
1.78163731226441e-20
6.1790643690886e-21
1.21589410229008e-21
3.44006514038032e-20
9.76757804253864e-20
9.2423104072128e-20
4.97709505893084e-20
1.03023157745857e-20
5.58661530312894e-20
1.70453304556453e-19
1.3500632827109e-20
2.58958267556133e-20
9.9023120486371e-21
2.51021257594075e-20
1.20881736647149e-19
1.19622754352384e-20
3.3703990974823e-20
1.35844139148182e-20
1.90286558712259e-20
4.26590995836479e-20
7.76002939993785e-21
2.56584486777576e-20
3.4217934338765e-20
2.28655689351088e-21
5.28781260905329e-20
2.1879143188978e-20
4.89564026250385e-20
2.46204068444362e-20
3.22439456510138e-20
3.03748557389642e-20
6.07010399232118e-20
1.15508167240087e-21
1.40124056190881e-21
2.83326323960249e-20
4.80790963055939e-21
3.12572644808581e-20
3.5905342074433e-21
2.68481343850229e-20
5.84978432948747e-20
9.96324377855801e-21
8.1102919570117e-21
1.49097026051325e-20
8.59063031379167e-20
4.68757900325723e-20
9.74959615072885e-20
4.58063254293598e-20
8.8151443501598e-21
2.63026918165853e-21
8.12914609294405e-20
2.60148906694664e-20
9.88832382971552e-21
1.20316564031124e-19
1.27578080362617e-20
5.36716177899926e-21
1.88016041286604e-20
1.82800839725621e-20
1.83659668339951e-21
1.62604050150165e-20
7.43780240774918e-21
1.09404978144129e-19
4.07998159395881e-20
7.74652374183071e-21
8.06180274069611e-21
1.95275864482498e-21
2.77820108659811e-20
6.54474636277899e-21
1.13249270348515e-20
2.32843677097247e-21
4.87563605225335e-21
2.0514216103671e-20
8.91627382763186e-21
3.23516966259377e-20
1.52843656523612e-20
3.27247916381663e-20
3.42253696871604e-21
4.64133441990312e-20
1.81103833706749e-22
9.82264818815964e-21
6.26308937932902e-20
1.00092927225648e-20
2.39507042992313e-21
6.72979314999113e-21
2.71967655596972e-20
1.70889771788817e-20
2.57236443671381e-20
2.47774998133988e-21
6.78614360268777e-21
2.98286262854033e-20
2.52860223984694e-21
8.25063795220902e-20
1.15776163963693e-20
2.30182336264027e-20
4.16645609813972e-20
3.94086156471375e-20
9.39089311319262e-21
7.23498061057669e-21
2.57337768805982e-20
1.6358692089917e-20
1.42245025476207e-20
3.49722598801231e-20
7.59375216566667e-21
5.02113586878786e-20
1.69263293660758e-20
4.06337997977293e-20
2.56567166370297e-21
5.84389493018253e-20
2.34336144690666e-20
3.43337170068667e-21
5.3514277750199e-21
7.49794352186465e-21
1.12604663311825e-20
7.4295412535925e-21
2.78795459536123e-21
5.21555707916798e-20
1.40022254874014e-20
1.77086709143537e-20
1.40093495977306e-20
1.24652863087396e-20
8.70711133839248e-20
3.42256141544344e-20
8.58271864330459e-20
1.20741134099847e-19
7.2542036917046e-21
4.99036816292453e-20
1.85105816968825e-20
2.57742744011891e-20
4.45182184213777e-21
3.26444411985528e-20
2.80756490729539e-20
4.54017724514499e-20
7.0933559760052e-21
1.44124222948242e-19
2.19329879415939e-20
2.17798811669918e-20
2.32994560007479e-20
3.24031436909147e-20
5.74582730857684e-20
1.71774034384228e-20
1.03559867351136e-20
7.34418814443085e-21
7.01308560133035e-20
6.62210730222775e-20
9.14688447615778e-21
4.50809384419373e-20
2.27578953170481e-20
1.40904034292771e-20
1.03737025080112e-20
2.28978224040655e-20
6.98233738127501e-20
2.91835301595386e-20
3.23945339225778e-20
1.13844463135973e-20
1.67030744232331e-20
2.46497886279566e-20
3.62982618080969e-21
3.9851336339048e-22
2.14057655314289e-21
3.03345620705322e-21
4.93369457827608e-20
1.26192257068201e-21
1.07959386938776e-20
2.36373047342012e-20
7.1649684991635e-21
4.57471164976701e-21
1.19815590430527e-20
1.54465139221612e-21
6.30918150255975e-21
4.85874609149167e-20
3.53337810016837e-21
1.00386474099129e-20
1.65305821152018e-20
1.95060587633736e-20
6.15804982993772e-21
3.09315969208261e-21
5.00828418254139e-20
8.89853299593123e-20
1.33729650266513e-20
4.15637259983789e-20
4.38418171610018e-20
1.6374242987885e-20
1.52603000346842e-20
3.31082141395153e-20
2.41084203151195e-20
1.09261478787002e-19
8.14851760757832e-21
4.82582289004782e-20
7.54463569326681e-21
1.06633513850502e-21
2.25542681033357e-20
2.45837326117804e-21
1.03268312547446e-20
1.16160135681736e-20
1.34253297074016e-21
1.62624949145919e-20
4.842332974078e-21
1.27925701200114e-20
7.06987653956827e-23
9.61428212371494e-22
5.44015780014019e-21
8.82813639745384e-21
1.00271928603297e-20
3.75962619591049e-20
9.50833500525781e-21
6.80185325875539e-21
1.27978223514527e-20
4.76541638363877e-20
1.95749043045593e-20
6.1314088579262e-20
3.69516965451687e-20
1.52725193700396e-20
2.28114901803569e-20
2.27268330000126e-20
7.9355884220577e-20
6.19044488331456e-21
4.67476432613466e-20
2.43002334883288e-21
1.79780646972158e-20
1.40133656376393e-20
5.63151143910731e-22
5.10402287703613e-20
1.711259950922e-20
1.02979760207133e-20
8.11465557782068e-23
1.2978280863238e-20
1.2304473386151e-20
9.32193898923899e-20
5.9229963837178e-20
3.68534466536964e-20
3.53342735145874e-20
2.38284858498761e-20
3.0788412006947e-21
2.75506005644583e-21
5.3957731636451e-20
3.8623271678391e-21
4.43000508866891e-20
1.07745675488117e-20
9.82254652426548e-20
1.75583664256621e-20
7.94547549352808e-21
4.77205291351839e-21
1.70207261185983e-21
2.98391663836993e-20
4.10969712642247e-20
4.79854874133732e-20
1.6874344918805e-21
3.86127538675404e-20
2.88959379650029e-20
8.64076507852287e-21
7.42131534909935e-22
5.85055219111495e-20
1.01710491650758e-20
8.57788756491945e-21
1.03774951766696e-19
1.44662420950606e-20
2.22801060032542e-20
5.52887651202079e-20
1.21147412703533e-20
3.484820361676e-20
4.01152859826827e-21
1.89257765671109e-20
2.00061851096882e-21
2.72881280933509e-20
7.27139063400446e-20
8.03800006028076e-21
1.03982805838749e-19
1.91862661108359e-20
2.35024385207703e-20
1.8769365548605e-20
9.08011630332967e-20
6.46158185273277e-20
7.52124453822476e-20
2.98553487888207e-21
4.245647672381e-20
1.13078567706954e-20
1.06371336581155e-20
7.10117108772698e-21
2.22429091310122e-20
2.84749591766625e-20
1.35656297188247e-20
2.84393836673398e-20
4.91829991231372e-20
8.45717654043178e-21
3.68827276880329e-20
2.76701643655405e-20
1.85854598853988e-20
1.59897164529154e-20
4.12343155159946e-22
8.344908538809e-20
7.51342225577513e-20
1.24982667417281e-20
9.51655302464592e-21
5.36073884141788e-20
1.35417111466135e-20
1.28192143258476e-20
2.73902639543013e-20
2.98300940126328e-20
4.05505352827818e-20
2.12911490921574e-20
1.14969174508379e-19
5.71234002231862e-21
1.83896082825131e-20
9.18994991887994e-21
1.49801879520296e-20
2.23731204773534e-20
1.31140678664477e-21
1.70841587062809e-21
8.74003203273112e-21
9.40117483273142e-21
5.57673836241672e-20
1.12765099261459e-20
3.82671446431575e-21
1.63671415570216e-20
5.96110413638804e-20
4.01695869745525e-20
5.06224443779125e-20
5.10683627912873e-20
1.88646115434734e-20
1.00230212133901e-20
5.61853054464937e-20
5.84321281879928e-20
9.91514484613155e-21
1.23891907981232e-19
4.87684075818788e-21
4.75772816527311e-21
8.13251715555935e-20
2.82104557905406e-20
7.45469594401361e-22
1.30834537501651e-20
4.25982284102699e-21
3.39255991478731e-20
1.43588330096214e-20
4.50872181511019e-21
5.55729640269699e-21
2.81348063753458e-20
8.28562155520334e-21
1.83027860751532e-20
2.9258390202996e-20
1.48605359642442e-20
2.33311885245802e-20
2.37083077750582e-20
1.35084251306801e-20
1.36995792517395e-20
3.01734449869913e-21
7.09636556085258e-21
1.54443494125722e-20
1.43246558234193e-20
6.94068790062044e-21
1.35461495187706e-19
3.71700916157987e-20
5.35805799948539e-20
3.13329138462549e-20
6.60150109216554e-20
1.06190336606983e-19
1.54058925037996e-21
1.57735495567894e-20
1.57182279506863e-20
6.05725612461572e-20
6.28729362750532e-20
1.85280579243307e-20
1.69960844246695e-21
2.3896238276993e-21
1.66688746242427e-20
9.58985259893397e-21
1.70955705915887e-21
2.1618042765328e-20
3.14405028081427e-20
3.69446124130721e-19
2.13096089999224e-20
4.09444272309304e-20
2.19571364480209e-22
1.7603391769404e-20
3.61252011831721e-21
7.38494797538324e-21
1.6248896440823e-20
4.34875292082768e-20
2.00848984238262e-20
3.4525386713968e-20
4.39103256101126e-21
2.50970381149366e-21
7.71273197034481e-21
6.69056264728668e-20
3.29699107267775e-20
1.52692791484913e-20
6.17390624826887e-22
1.48750274912962e-20
1.05830756894751e-19
1.33405787428186e-20
6.39688772411908e-21
6.31765724850613e-20
6.5547973142909e-20
6.55923691354887e-21
1.04469338744978e-20
6.21884154207448e-21
1.81964229890343e-20
1.29921209325685e-20
4.80060083440016e-20
8.76426232942164e-20
6.03493784903272e-20
4.0215920215929e-21
4.9223924041858e-21
8.36107937406855e-21
9.29970587686088e-22
8.23415967306735e-20
9.63860674463751e-20
3.70906864813162e-20
3.77319224584268e-20
8.66855554047944e-21
7.88197531251112e-21
2.86959483709841e-20
1.45655398480295e-20
1.01090111855233e-20
2.10147683100358e-20
4.87602913631899e-20
1.057557877415e-20
1.18995537029163e-20
2.45253817893365e-21
1.91005307035431e-20
3.02238513785392e-20
2.04231234837043e-20
2.34630575629579e-21
2.32115328118409e-20
7.8214628885835e-20
1.82409899634515e-21
3.51523167645504e-21
5.06448073246468e-20
5.76964617853589e-20
4.14471330319346e-20
5.34848047174081e-20
3.57330995227303e-20
2.18400984119552e-21
9.72978886380877e-20
1.82653900569047e-20
5.12653155187583e-21
5.2553008315079e-20
4.58436546847865e-20
1.90147895042682e-20
3.95038225705553e-20
2.86308023933203e-20
1.98024770473366e-21
8.63447470611658e-21
2.42684579412965e-20
2.60557303575882e-21
1.58839269092632e-20
3.21287002781259e-20
1.87394228812055e-19
3.07219697116018e-20
1.74606881441097e-20
5.45842499320573e-20
3.62971805383574e-21
5.09022499478728e-22
1.20915143792807e-20
2.17095937388777e-20
1.04815748999791e-19
5.43145945375581e-20
6.31634524760955e-21
7.89857096622698e-20
3.50019572307786e-20
9.12926462707366e-20
6.13944039099706e-21
1.29847932240022e-20
2.6405294260284e-20
4.83034706078358e-20
4.86072761812111e-20
5.35498218159861e-21
1.07287858051896e-20
1.42669268033449e-20
1.94370739630893e-19
4.38388428203014e-20
4.62138902084508e-20
2.6876272195326e-21
3.27739330355362e-20
1.66485197367221e-20
7.57012486791181e-20
2.10386580493356e-21
2.51898185922273e-20
3.41482744849575e-20
1.86302108557065e-20
9.66324550676095e-21
7.57169737620268e-21
2.669707676826e-20
3.0370746325869e-20
1.34031526978219e-20
8.1960185179204e-20
3.31007844626034e-20
1.2267085357358e-20
5.06996159903011e-21
1.62083946554657e-21
2.74152871700128e-20
4.33927618181277e-20
9.67788953504413e-21
1.05952271790955e-19
1.57393005082848e-20
4.6387952363327e-21
6.29476947867484e-21
3.89078398080106e-21
6.86773383290513e-20
1.86818636899128e-20
5.34148391373362e-20
6.68254417283027e-23
5.74345000561782e-20
5.49873899337089e-20
1.67625149473215e-19
1.85050593513488e-20
2.82470716963518e-20
4.60866646412865e-20
2.15407455969807e-20
5.90746099527268e-21
2.07766888880595e-20
3.15149322865624e-20
6.72597851875772e-21
6.60525463841049e-21
1.12841833938861e-20
3.99442459569461e-20
3.829229102193e-20
2.47689619125819e-20
2.58182137094137e-20
6.67312996532573e-20
4.85578245343479e-20
8.95129099596932e-20
8.87134967584227e-21
2.1086497203294e-20
2.36461424735329e-20
9.22046619956089e-20
1.31726400682502e-20
2.03178423251966e-20
8.93975485558075e-20
1.00198805082783e-20
1.97545258896443e-20
2.32818608429483e-21
6.70687158038989e-21
1.42150859618692e-20
2.18780223249609e-20
2.64904036755949e-21
1.59109776957507e-20
5.60154612769167e-22
1.19005627513481e-20
6.58694580339753e-21
5.98903177261193e-20
5.41460461986142e-21
1.17668159631375e-20
1.39254202486748e-21
1.76649739325718e-20
8.74931974800357e-21
2.49295527704816e-20
1.34193780294103e-20
2.40774166945377e-20
5.04995518262333e-20
3.95576930628399e-20
5.80805017847406e-20
1.97315584030089e-20
1.58634520663112e-20
1.6173737948594e-20
4.29330681905746e-20
9.81444047055424e-21
8.15021773672811e-20
1.10175088765828e-20
5.39147196479967e-22
7.51685943062301e-21
5.53338030629715e-21
7.72710874400037e-21
3.51966040507952e-20
3.4310207694908e-20
2.88492147008614e-20
4.92631800509092e-20
9.61466000867199e-22
7.42712458826419e-20
6.23844027236077e-20
8.29041379110558e-21
5.04695621101968e-21
1.47757768380864e-20
8.18255142391822e-22
2.77504879645589e-21
1.47703219219168e-20
3.24660686694201e-20
2.03862073030421e-20
1.53345232613793e-20
6.71085455374563e-20
3.06504870755105e-20
1.88477834966042e-20
1.05076631321753e-20
1.03115843971206e-19
2.96870793548904e-20
7.61257451121147e-21
1.49253349331332e-20
3.81334032612944e-20
2.26209503923438e-20
7.77669774912034e-20
3.23742510438339e-20
5.13394485479664e-20
2.49138181906339e-20
5.26071073872918e-20
1.86679812016191e-20
7.25329439251111e-22
3.06608968383476e-20
1.18077150800835e-20
7.92559030838765e-21
2.61378134594642e-20
1.0833565994372e-20
1.46289433702664e-21
1.5791958554235e-20
9.53249886373045e-21
8.58109489944551e-21
4.40645639344964e-20
1.0321361118088e-19
1.48031240855666e-20
8.44795840148928e-21
3.58223352621208e-20
1.28938593429049e-20
9.23913363009833e-21
6.91189929503118e-21
7.02979865336178e-21
1.59313330682095e-21
9.14629762977672e-20
1.12804451020803e-20
3.67785891831973e-21
3.59249204473216e-20
1.40341956162724e-20
3.52479431899161e-20
2.42094549672829e-20
5.76223125950995e-21
3.37042194514782e-20
2.13301057650195e-19
2.21118234574079e-20
2.7261560529633e-20
3.33089532948442e-20
5.71575093554219e-20
3.01899944255452e-20
4.99808623122118e-22
2.55278459386706e-20
4.87086247132654e-21
7.67474656101252e-21
7.06133843600917e-21
2.67594883368201e-21
1.30603904576263e-20
3.56871977763785e-20
8.60904209879459e-21
3.51357889423214e-20
5.03733446515339e-22
1.58468069585354e-20
5.4118657178588e-20
2.70855802119474e-21
2.23144688952863e-20
1.97848555110364e-21
3.75776877327166e-20
4.13230007374063e-20
1.00125067080891e-19
3.89078203445623e-20
1.454704559255e-20
3.80979777156677e-20
1.8345701971058e-20
5.85234102320379e-21
2.50450203352552e-20
2.61040402558597e-21
4.41770686136163e-20
9.33300280371422e-21
4.13893631251391e-20
2.46403712637923e-20
4.05907824495988e-20
1.56439938565656e-20
2.44645562334521e-20
2.27573057763643e-20
9.09137444635866e-21
1.06858522304421e-19
1.17247325223993e-20
1.02260810561329e-20
1.31323022169476e-20
3.70408127302248e-20
2.61100581946706e-21
4.94243961914643e-20
1.32063299268413e-20
6.50005546556978e-20
2.12663868255164e-21
1.5978472910242e-19
6.60429705573523e-21
1.1853129607232e-20
9.7969844296745e-21
3.27741215402477e-20
4.7432634893767e-20
2.33362429773823e-20
1.24379126865495e-20
2.33651992285182e-20
1.87484269843239e-20
3.66531505639903e-20
7.49012719463e-21
7.35924301331374e-23
7.73237176249981e-21
2.1910442990045e-20
9.16275294125284e-20
7.95427182631963e-21
3.04693382637784e-20
1.17879180926129e-20
1.69565304484204e-20
2.52490332110998e-20
3.84981855013756e-20
2.01457131842124e-20
1.47257761102354e-19
7.82743299228559e-21
2.95612534771241e-20
1.63130556640383e-21
1.83045442881836e-20
1.53319719175439e-20
4.58658060803494e-21
6.23159356740078e-21
5.97930085408855e-20
4.57753488981964e-20
3.0752078363434e-20
3.22819123439487e-20
1.88000394058266e-20
1.18887241389224e-20
6.37754065468786e-20
6.41809866723313e-20
2.72667640402213e-20
1.90043766452708e-20
7.279504666468e-20
1.61023525810472e-20
3.83225843682866e-20
9.48418185352804e-21
1.18508015556571e-20
2.64463614076168e-20
1.93141220234482e-20
2.24799063912291e-20
3.80181193069968e-21
1.79027775206632e-20
1.25975444423323e-20
7.13024005699204e-23
1.97654744317224e-20
5.38112312717419e-21
3.16699774810307e-20
3.04928758259343e-20
9.5144756047033e-21
2.04366171313504e-20
2.53289476856364e-21
5.40297883063256e-20
6.17347672952745e-20
2.37998640696734e-20
2.14526886371741e-20
1.35667627651323e-20
5.88627252566596e-22
4.32146286424241e-21
2.15382855532496e-20
6.39458096271973e-21
2.83105566286461e-20
5.56529848341667e-20
6.59010646570013e-20
1.04842421726545e-20
3.26820582913617e-21
9.70620036428964e-21
2.06632654539457e-21
5.10497946492731e-20
2.28786483031414e-20
2.6698795731218e-20
4.14895533825185e-21
1.73245291962318e-20
1.38006004828476e-20
1.59701333201417e-21
3.24611304138421e-21
1.40245034667116e-20
9.13580417001465e-21
2.84671132346287e-20
6.10645164434081e-20
2.18561027778093e-20
2.55453414660569e-20
4.59066286440324e-21
1.77164314085153e-20
1.18774436257457e-20
5.20327272382824e-21
3.02252890497036e-22
6.99764222426677e-20
8.19418903868277e-22
7.3480697167954e-20
6.31729641449077e-20
2.00606113988252e-20
1.03555090857002e-20
1.46180514864746e-22
5.8343338370615e-21
3.22789440688725e-21
1.5508747746596e-21
3.26356740694276e-20
1.01431281213943e-20
4.56821142804167e-21
8.03217769443685e-20
2.47793337573853e-20
1.40975854537236e-20
4.26350467289572e-21
5.5994893425978e-20
3.19703952429931e-21
4.95503877128926e-20
5.51522287002981e-20
2.26175579203046e-20
2.8867365495247e-20
2.8520716203339e-20
2.66643168244446e-20
4.43568391491318e-20
1.47843394466254e-20
1.18636384165169e-20
6.795452169547e-20
1.84968569105234e-20
4.79299157152896e-21
1.39988510647789e-20
1.41724154738927e-20
1.48371928948597e-19
7.51582507597595e-22
8.43364243398479e-20
1.11586425526032e-20
2.91442174730451e-21
5.92296035363445e-20
4.01310236038856e-21
1.28893696807679e-20
3.86361849934284e-20
4.34078361075427e-20
3.20274206246707e-21
2.72170341219985e-21
1.0315516824105e-20
1.70680612243224e-20
7.49612573672623e-20
2.97680248608971e-20
2.06902937233866e-21
5.31659390766856e-20
5.92404984690408e-20
2.22213624249769e-20
1.4551656606547e-20
8.22366912187057e-21
1.62108214341239e-20
3.84755062771739e-20
1.91646141120334e-20
1.2356780879918e-20
1.79111511690365e-20
3.69502105683786e-20
2.73416289139136e-21
1.78868781352315e-20
2.04336189345892e-20
3.37005752159586e-20
1.92146252482936e-20
1.09958897234617e-21
4.5912468995223e-20
1.82389798526671e-21
3.28215863381735e-20
5.23107223326861e-23
1.22722481578794e-20
8.75021527921936e-21
1.82784435599668e-20
1.99953978120519e-20
8.65813965811161e-21
1.07712719142656e-21
2.24005192711804e-20
3.79181770989409e-20
2.00567135440779e-20
9.62666043452124e-21
5.06019961083009e-21
6.02524745167284e-22
6.34712799127055e-21
5.72817413740658e-20
2.44986952857948e-20
8.82691423150308e-21
1.05781788577793e-20
2.13986223186334e-20
3.42844766933503e-20
6.81609206125454e-21
4.44015456218359e-20
4.70898196605738e-20
2.61104589658875e-20
8.93583793074748e-20
8.03283725483931e-22
3.20182102358039e-20
1.37191959211638e-19
3.7094865421473e-21
2.50404415295554e-21
2.92310920153952e-20
3.8367455450585e-20
9.22494483607081e-21
1.25805480184962e-21
3.48116280015178e-20
1.28052060990442e-20
3.67190582675869e-21
4.54485104969229e-22
2.24753261791338e-20
2.33275900716147e-20
2.86230644421619e-21
8.76408854197241e-20
5.36268722168098e-21
7.38013776499795e-20
2.94331274248343e-20
3.22524406471656e-20
1.69746495730448e-20
2.13858509373269e-20
1.63493770593932e-20
2.33137721624131e-20
1.90862049183191e-20
6.87044888271101e-22
7.27825515615707e-20
8.09181670659673e-20
9.79764833456403e-20
2.66777182687198e-20
2.48826485875543e-20
2.20296163827704e-20
4.88147850553947e-20
4.33416567271825e-20
1.75737480559276e-20
2.28334360052827e-20
9.42299281654006e-21
5.14020522915379e-20
1.34058686691783e-20
3.93507585414982e-20
2.66724419226078e-20
4.72249297681997e-20
6.17575030905468e-21
5.66132088122851e-21
4.46026102244044e-20
7.72291581645021e-20
2.74501563657202e-20
1.38172390065087e-22
1.2877828834014e-20
7.24172452607247e-20
4.41255504002391e-20
4.07449317807739e-20
4.47035411462403e-20
8.11537437575046e-21
3.42990431328833e-21
3.29894836519737e-20
4.94919496822728e-20
1.74840450161972e-20
1.3935473334436e-20
6.09574866593825e-21
3.0268756539848e-20
2.21228910573239e-20
3.80145011480625e-20
1.45374259561773e-20
3.77507677503561e-20
3.5380987774665e-21
3.4666081019198e-20
6.38733267973248e-21
2.96629766481368e-20
5.00570017216268e-21
3.21311301018726e-20
1.14222977810064e-20
7.71802668278447e-20
1.50449699070703e-20
2.62241194214893e-20
1.59260806804655e-20
1.94827818649283e-22
2.45057461156004e-20
2.74028970160805e-20
5.14455813058598e-21
1.26687947242393e-19
2.85985663023519e-20
1.06413380921318e-20
2.32736864986172e-21
2.51169011616469e-20
1.30273430746292e-20
2.70260512955327e-22
1.9095444753074e-20
1.6745979813673e-20
4.26340254535e-21
7.38001645410297e-21
8.10652937378686e-21
1.07391191071557e-20
5.37540357412521e-20
3.88605598805606e-20
6.17672992574364e-22
2.49280599653823e-20
1.66388331599501e-20
1.24416941849235e-20
7.34935240557999e-21
8.03906232575995e-21
2.51297870107173e-20
1.34022375665034e-20
1.08122030645642e-20
1.34915353354214e-20
2.52662058806461e-20
4.2743493359724e-20
3.005840267059e-20
1.43586619550038e-20
7.14499154047704e-21
1.05962945412263e-20
5.49816021087562e-21
4.06105804582428e-21
5.67638540840554e-20
2.26169582685168e-21
1.4799490626984e-20
2.04079499966633e-20
3.715784315839e-20
5.0926097188847e-20
4.52426774612041e-20
6.33451991819908e-20
2.6900952227451e-21
6.07807610999095e-20
1.01646456027481e-20
1.57246234447192e-21
3.46558212838538e-20
1.1870169530966e-20
4.50343220999025e-20
3.02573264874047e-20
2.39315558720063e-20
1.96641047071412e-20
3.78463096780288e-20
3.06500068186285e-20
4.95938312025982e-20
8.44431611750069e-20
3.94085839072738e-21
7.61653876344031e-22
2.46231394873896e-20
2.28732087273487e-20
9.11475278246217e-21
2.36929737643378e-20
2.57779019617204e-20
3.62966780157601e-20
3.03217992439891e-20
7.73320166353044e-20
9.37877396687593e-20
5.55466766802997e-22
4.4139490411612e-20
2.91562332556502e-20
4.98672144707217e-20
7.83926415593553e-21
1.62527824345631e-20
1.7045950871931e-20
8.66559240263065e-20
2.29000418204521e-20
3.18601920166995e-20
1.97139313195737e-20
2.15854888530557e-21
1.18083117593549e-20
3.13994824142504e-20
5.79957257824168e-21
2.82420931614217e-20
1.90058591691431e-20
3.5692553219878e-20
1.10534318361355e-20
4.97147106272877e-20
5.83800205889605e-22
5.76279496415123e-21
4.57766211938874e-21
3.4676545188142e-20
2.41334723507562e-20
7.8395928165677e-21
3.99748299553671e-21
4.04210358167863e-20
2.79425295321829e-20
6.53115158050044e-20
3.32597214780177e-20
7.89108320623766e-21
5.71159435384206e-20
6.836118475354e-20
4.72784454078473e-20
1.42125801074155e-20
3.67306149036964e-20
3.44130170091119e-20
6.02363465697084e-20
1.16360999112608e-21
5.57135719047018e-20
4.89682359897921e-21
1.1272437901824e-20
1.47955909033956e-20
2.61713637508273e-20
1.04487825925493e-19
2.57832650515494e-20
4.45100874225287e-20
3.40121874784302e-20
1.67832692736312e-20
8.54504548557149e-21
7.32733493486719e-20
4.4153119925638e-20
2.27283549713669e-20
2.09497492332321e-21
1.30622599515308e-20
1.70424626412832e-20
2.42035446670633e-20
7.1042021089621e-21
6.42109358480531e-21
4.33798382690454e-20
3.17334866140235e-20
2.26139100975679e-20
2.28176664932801e-20
6.77898808872276e-22
4.80364547032274e-20
2.39300703168237e-20
1.32308284766186e-20
6.29666086427949e-20
2.0121016912948e-20
7.44276054796525e-22
5.32274970466906e-20
7.27968403104645e-21
1.07488008200266e-20
4.46114473225315e-21
6.14147223300805e-20
1.41760847473616e-21
3.22227062998078e-20
6.7657050119464e-21
6.31561638784858e-21
3.93864255830187e-20
7.50786112854888e-21
7.83018166493922e-20
1.29436051324756e-20
3.1977858005617e-20
8.80076025737204e-22
3.2325263301564e-20
9.64151070003583e-20
6.84058595958603e-21
7.77133702266469e-21
7.16982069111596e-21
1.66329698024386e-20
2.37430394306192e-20
3.18710874534996e-20
2.22489087793205e-20
3.79072429518051e-20
7.56756593336928e-20
6.40769761512347e-20
2.8279121680392e-20
5.30339770409301e-20
8.69258540525002e-20
1.8842275915755e-20
1.16252550013896e-20
2.28765134670182e-20
2.96342062099311e-21
6.00933191274417e-20
2.69556859689071e-20
4.71429898944071e-20
1.38455497368985e-21
2.77246462192521e-20
1.46819477462052e-20
2.4842925728267e-20
2.48377531061723e-20
4.85043525902371e-20
1.05597836549977e-20
1.48397265193765e-20
4.83590749303146e-21
2.47934963024564e-20
9.09760295352519e-21
5.86685739930861e-22
7.5550197465018e-20
8.41212475294457e-20
1.54796372474403e-21
3.0325268579211e-20
1.86602414391879e-20
1.34028854400196e-20
1.06212787697342e-19
1.72297754440259e-20
7.13579034880056e-20
5.32048584226883e-20
1.90428736598624e-20
1.92231491869614e-20
7.52144781243078e-21
1.14522103974871e-19
7.15325638859936e-20
1.09291621358612e-20
4.27200431853346e-22
1.22774556007237e-21
2.12273178714176e-20
9.25373987785366e-21
8.68314472876284e-21
5.84151855616343e-20
4.38231860500076e-20
2.35073629535377e-20
1.12204011765784e-21
6.75950033043137e-20
1.4647020668863e-20
5.1908883759173e-20
9.05185664116511e-20
1.46194219590315e-20
1.01098757500662e-19
1.56194733322477e-20
1.59096789907876e-19
7.78287806795672e-21
8.55155583724806e-20
2.79793262936386e-20
1.5637261098038e-21
2.48707206630814e-21
2.77125535710216e-20
8.73358400833834e-21
9.42933343010498e-21
4.92623165268052e-20
6.03783136276885e-20
5.72500221395399e-22
2.47693788067909e-21
3.83429343594891e-20
1.60467132098464e-20
2.58643192869848e-20
3.72499892054331e-20
6.96800947831477e-20
2.17539363282457e-20
3.52720411908307e-20
3.09636739725087e-20
3.63343839337901e-20
2.60534749689478e-20
1.08563844689004e-20
3.62624871648889e-21
3.60452702774935e-21
1.93532200407694e-20
7.33092085957626e-20
1.5251934345368e-20
5.27640981618839e-21
8.076248396594e-20
7.35729284553963e-21
1.08566469104066e-21
8.99319275665534e-21
1.60199517943832e-20
1.13853847154584e-20
4.05344680991664e-21
1.99768672978661e-20
1.78043018598946e-20
4.70865228351192e-20
6.71854941681864e-20
2.49586373884394e-21
4.57480884740961e-20
7.91941957519807e-21
2.7944403124246e-21
1.75391202207562e-20
2.27867102344204e-20
7.77040425685268e-20
3.0594606704004e-20
4.60101383691209e-20
7.61820641808682e-21
2.91545674944378e-20
4.98340508983206e-20
8.36108311820449e-22
3.62046681673227e-20
1.64401604020499e-20
9.6996908807363e-20
7.97954763644196e-20
1.82379334589788e-20
1.15031281202544e-20
4.76217692193289e-20
3.86407840472136e-20
1.01947483117012e-20
1.52899696975059e-20
5.90813346681232e-20
5.16956800297758e-21
2.15512798105868e-20
1.45944636561789e-20
1.84316226441444e-20
4.47360875451133e-20
6.92280686665691e-21
2.83259583714934e-21
2.58942656327637e-21
1.78325447870682e-20
7.87099203869091e-21
5.99475397221475e-21
1.3497138721358e-20
3.77650058167791e-20
1.18254398347456e-21
6.81771108604269e-20
1.70772808510073e-20
3.1202508594175e-20
1.59073296657993e-19
6.47413060408503e-20
9.49154717395171e-21
2.29381367535833e-20
3.30485464174242e-20
9.24381433435342e-21
1.1692190409824e-19
3.63068248274416e-20
2.05871185835054e-20
3.70580863631323e-20
5.53294277574903e-20
9.68774520672021e-20
9.63211482541671e-21
5.36934808604384e-22
5.51166742438226e-21
5.4157452875087e-21
1.59299582670888e-20
4.65492345288082e-20
1.37774552721686e-20
2.58523893943908e-20
1.48990744635377e-20
1.93237278336926e-20
1.59767889799065e-20
1.88663203039022e-23
2.1467315269496e-20
3.42954029520133e-20
1.32318857367371e-20
3.14553618885582e-20
1.07159789554265e-20