/*--------------------------------*- C++ -*----------------------------------*\
| =========                 |                                                 |
| \\      /  F ield         | OpenFOAM: The Open Source CFD Toolbox           |
|  \\    /   O peration     | Version:  v1706                                 |
|   \\  /    A nd           | Web:      www.OpenFOAM.com                      |
|    \\/     M anipulation  |                                                 |
\*---------------------------------------------------------------------------*/
FoamFile
{
    version     2.0;
    format      ascii;
    class       Cloud<dsmcParcel>;
    location    "0/lagrangian/dsmc";
    object      positions;
}
// * * * * * * * * * * * * * * * * * * * * * * * * * * * * * * * * * * * * * //

47581
(
(0.00714936963916623 0.00636511177743165 0.0030638521423329) 0
(0.00613800220922721 0.00535038762001259 0.0046761457594536) 0
(0.0087030156332227 0.00842168105417217 0.00529248367208764) 0
(0.00904586102423499 0.00428688796543478 0.00251656040993792) 0
(0.00904447659961901 0.00694108565598187 0.00103568098531012) 0
(0.00954091987426254 0.00685530419910984 0.00080895308563564) 0
(0.00798904509186196 0.00414663746996686 0.00213516919157394) 0
(0.0087355503155135 0.00560380620327726 0.00546542346476153) 0
(0.00827510699582541 0.00249965196771436 0.00455994648885215) 0
(0.00674884405041668 0.00332838451590158 0.00396575907650311) 0
(0.00902718575641361 0.00593624920779513 0.00673789161216563) 0
(0.009539571597383 0.00162108486436212 0.00409941393532668) 0
(0.00929562021639429 0.0061990450070847 0.0078999471167567) 0
(0.00989223090999344 0.00368268695142961 0.00806678031635633) 0
(0.0077386582579512 0.0026603566650028 0.00639450370309096) 0
(0.00976229894244946 0.00372049264177955 0.00714313400407219) 0
(0.000183660307520857 0.0099210295802604 0.00436175868770592) 0
(0.00607405797743011 0.00859520026183175 0.0075166253727774) 0
(0.00265032791328183 0.00902365366067679 0.00477812395815198) 0
(0.00299070215103102 0.00880951762065971 0.00727787521588402) 0
(0.00226300036207968 0.00871158794241653 0.00272258077149397) 0
(0.0014932993611029 0.0091572910022302 0.00385999220696045) 0
(0.00381370442550518 0.00662042160835698 0.00612418819649092) 0
(0.00427013202758781 0.00987735264990066 0.00291685679058956) 0
(0.00821136931480682 0.00853140132626409 0.00779075523754008) 0
(0.00788308065779431 0.0087077976612508 0.0021639761490575) 0
(0.00350994343665699 0.00945121750274824 0.00160364228793933) 0
(0.00708047400754795 0.0082571859434705 0.00444431835336706) 0
(0.00521017509240851 0.00899174119691709 0.00197620145888573) 0
(0.0050562495946045 0.00903981179902901 0.000996684549861495) 0
(0.00531620399073239 0.00883670494508019 0.0024233546038071) 0
(0.00371962410932246 0.00080894892418959 0.00365636014088595) 0
(0.00481112958569449 0.000753335201072627 0.00418057841650162) 0
(0.00641515559635275 0.00239080036404515 0.00518154545095625) 0
(0.00310203131458133 0.00126181883966519 0.00302443691839697) 0
(0.00924388202516754 0.00062076112201181 0.00086369533733409) 0
(0.00988133636204834 9.75517269913873e-05 0.00351381906743876) 0
(0.00514193953426863 0.001227157931925 0.00143058908909604) 0
(0.00447074957222762 0.00176029760465104 0.00686305333821215) 0
(0.00365657454471807 0.00150574667413819 0.00653358537773487) 0
(0.000768787200048617 0.000621490855550793 0.00336378955938402) 0
(0.000624511047023741 2.95207837093692e-05 0.0098358279528224) 0
(0.0073087796722279 0.00112849487595652 0.00737284842583717) 0
(0.00570966984307921 0.00124574168605507 0.00746412619955953) 0
(0.00420581478331174 0.00196858844244366 0.00570221270042415) 0
(0.00489491868961183 0.00184757811674819 0.00716557077929158) 0
(0.000126421286104783 0.00279732173638488 0.00482860116367265) 0
(0.00278456798395633 0.00361634482911766 0.00558915102620427) 0
(0.00129940181788109 0.00319595806209742 0.00530448161732904) 0
(0.00276039299728867 0.00641109135796802 0.00667942753931603) 0
(0.0021753565869461 0.00238132271935593 0.00318763959318302) 0
(0.00112546643154884 0.00712140483710842 0.00874253379942003) 0
(0.00198231812625791 0.00407876739055178 0.00681206853899516) 0
(2.69232298085775e-05 0.00606687682232794 0.00599509602655159) 0
(0.000944937993637165 0.00706896761426799 0.0058190150270161) 0
(0.000796823832308658 0.00796474314134132 0.00785218726123476) 0
(0.00135739916547843 0.00704415211147866 0.00642083839079108) 0
(0.000273938443357107 0.00746255760583319 0.00569058386510266) 0
(0.00271744454215879 0.00666260547699183 0.00607813031772059) 0
(0.00376694379372756 0.00460966784584668 0.00434468596277847) 0
(0.000222536146715964 0.0044260161591273 0.000204448865055422) 0
(0.00564181395909598 0.0073063432380957 0.00136930329020148) 0
(0.000679228832306738 0.00495719107365618 0.000611245188352978) 0
(0.00317947172240791 0.00561071799516066 0.00284553839514723) 0
(0.00485011492059252 0.00781907485116248 0.00210561344591691) 0
(0.00182241301333397 0.00718179044382756 0.000798352209318996) 0
(0.00668316412152874 0.00734752775512396 0.000369180907323052) 0
(0.00964009155526542 0.00429610012246206 9.51531596711952e-05) 0
(0.00182262042635299 0.000641169600177545 9.01411177007994e-05) 0
(0.00693665009279032 0.00604879249152424 0.00168011250315145) 0
(0.00734630391335825 0.00472223829332746 0.00193757770156987) 0
(0.00795266868148191 0.00566469176227747 0.00129073350021516) 0
(0.0067168301429958 0.00458392033445941 0.000130095921831295) 0
(0.00447516609801896 0.00342736809510429 0.00303293296278634) 0
(0.00708721806573587 0.00151557111984447 0.000395980655150954) 0
(0.00448992524650285 0.0025245951264826 0.00897203027827215) 0
(0.00391173420175486 0.00370610482298085 0.00862519182444389) 0
(0.00803718875098829 0.00649126489225685 0.00964015671570122) 0
(0.00796862668620394 0.00791896644461483 0.00903333518719025) 0
(0.00693206804626131 0.00454770773088294 0.00913732273520028) 0
(0.00465529988826889 0.00370789327928376 0.00781714481114987) 0
(0.00530429909456039 0.00515407204119633 0.00853705755949324) 0
(0.0068794134599664 0.00431691931689864 0.009774281799076) 0
(0.00211216002038709 0.00244590052142455 0.00857224557945733) 0
(0.00622408192226827 0.00708606212647988 0.00841453697802295) 0
(0.0054214570713866 0.00670260708374391 0.00742644571299563) 0
(0.000298096169512139 0.00929349152600585 0.00970842316465214) 0
(0.00413368497592691 0.00855192836649914 0.00933255954292795) 0
(0.00487537325850815 0.0071307222284017 0.00726394931695323) 0
(0.0019279008402024 0.00760537411787658 0.00894468325877776) 0
(0.0189444886594447 0.0081314310957592 0.00408925514852397) 1
(0.0197031326309999 0.00884504729307141 0.00575013738729011) 1
(0.0194095368568814 0.00559691545814987 0.00468199653876672) 1
(0.017838958993296 0.00558774279619586 0.00363686768898171) 1
(0.0184912894011917 0.00346984994054269 0.00260402605654233) 1
(0.0195828656299396 0.00597685220307278 0.00495154139114087) 1
(0.0187297639227147 0.0026612670352513 0.00135135439841948) 1
(0.0166155585568813 0.00591291115675247 0.00413419828095158) 1
(0.0165447966085861 0.00573969949242445 0.00478091764720512) 1
(0.0189376609892735 0.00745085825995714 0.00870624752382481) 1
(0.0186559467582289 0.00484507531926548 0.00684162219781518) 1
(0.0179430631578014 0.00245681874395162 0.00625377086484937) 1
(0.0173737393852652 0.00394816613173569 0.00541880070560248) 1
(0.0164835484355452 0.0054085619498805 0.00636248860922288) 1
(0.0181105771328141 0.00532293015407449 0.00651257716978241) 1
(0.0194632446453279 0.00167134582114681 0.00897524954006641) 1
(0.0129848966172846 0.00794115544295943 0.00639589636561075) 1
(0.0162218533808694 0.0077101442651171 0.00735857823318233) 1
(0.01173639454973 0.009688277195157 0.00398008593393174) 1
(0.0163659625259538 0.00676288654088074 0.0065235525942199) 1
(0.0148852829930946 0.00590125772294725 0.00554805415262328) 1
(0.0118218973073391 0.00827317569091891 0.00533132984405368) 1
(0.0155333322738272 0.00995259843184636 0.00693417013669793) 1
(0.0116630430079625 0.00873683476584002 0.00501178016588881) 1
(0.0168070104409806 0.00835672193068911 0.00428102147627053) 1
(0.0153267112921389 0.00914169280842208 0.00283217606920848) 1
(0.0133138657287835 0.00778257809117415 0.00260875261552913) 1
(0.0153219975982502 0.00816623558872278 0.00501238395934722) 1
(0.012127150501058 0.00826210832717054 0.00201242677845196) 1
(0.0186142389286931 0.00926460731373941 0.000794181670909122) 1
(0.0155189079435152 0.00884305191514104 0.00281893217541631) 1
(0.0184236278852105 0.00926475414717931 0.00834398815346343) 1
(0.0141581943003776 0.00892784061463878 0.003240832470497) 1
(0.0167382935356996 0.000822218404038484 0.0022103667683381) 1
(0.017352965944006 0.000456556322885699 0.00561136507978015) 1
(0.0186797296821961 0.0012646105942005 0.00597219731009451) 1
(0.0184594633243201 0.000491785514485503 0.00217826875090394) 1
(0.0158542407956986 0.00229755468736352 0.00371075684176729) 1
(0.0152461146805564 0.000571908527097218 0.00310838891566879) 1
(0.0187491470633161 0.000841712738202833 0.00845313462300405) 1
(0.0121263678031053 0.000137720622066073 0.00740918691224001) 1
(0.011989483957537 0.00136842044069519 0.00846882716634985) 1
(0.0131340538494922 0.00170160183389433 0.00412012285923838) 1
(0.0133516742999106 0.000259297885087708 0.00830734481630584) 1
(0.0126413285293885 0.000511120014913811 0.00596398214902029) 1
(0.0126761850228173 9.00052069654045e-05 0.00388507207103435) 1
(0.014824552126618 6.75928092219458e-05 0.00990945890295562) 1
(0.0148554205212722 0.00186112533250062 0.00712328004539673) 1
(0.0122920339237124 0.0074781977167626 0.00187688175017827) 1
(0.0158988544778651 0.00723575725756218 0.00233122614252226) 1
(0.0129553415251971 0.0082653679751076 0.0017330539032608) 1
(0.0161594831176176 0.00898166834000412 0.000125384686365226) 1
(0.0138509014025563 0.00912460821585077 0.000620514245544701) 1
(0.0112873986114492 0.00794785710785439 0.00126529407558978) 1
(0.0145933807400324 0.00585033193521005 0.000644779693609277) 1
(0.0114473075082618 0.0075905767521698 4.52760631981519e-05) 1
(0.0163519483009468 0.00597554585581408 0.000927136279635423) 1
(0.0178584297302037 0.00497694612518801 0.000559228596916217) 1
(0.0162165334628699 0.00555472394019082 0.00321179511795345) 1
(0.0139508924429067 0.00195853181572355 0.000101136826150263) 1
(0.0148292304518312 0.00371463520270554 0.00347603548660532) 1
(0.0148888287567336 0.00122918710524365 7.79872299817797e-06) 1
(0.0151821204896341 0.00436326321628256 0.0032781948548311) 1
(0.0150222530630215 0.0044143192823009 0.00062265863180409) 1
(0.0170635644952318 0.00326082140719462 0.00887830313142365) 1
(0.0153807859204692 0.00504012618735755 0.00667358028900202) 1
(0.0175157507053407 0.00503670851982013 0.00924210343019267) 1
(0.017339248467462 0.00588603791251097 0.00837526971257338) 1
(0.0125194276475597 0.00199708152540042 0.00966717299546131) 1
(0.0146593197696164 0.00185997813809815 0.00854925661155972) 1
(0.0148937002507367 0.00150857448855593 0.00884148194766688) 1
(0.0113391466473191 0.00584688103930661 0.00889781860486979) 1
(0.0165427996027232 0.0075426088463311 0.00785200363324263) 1
(0.0154543265667296 0.00639341946651049 0.00855609654021263) 1
(0.013465835926211 0.00481695915578589 0.00687841210312561) 1
(0.0132254710820496 0.00447164948950379 0.00869871570658608) 1
(0.0114199009114377 0.00839574406252213 0.00982324434250438) 1
(0.0147953628360435 0.00664374702473781 0.00774868960212198) 1
(0.0146732607176046 0.00505728842616582 0.00641815204203391) 1
(0.0117497592474399 0.00668046852117515 0.00419704677950483) 1
(0.0123234552089879 0.00543341143770556 0.00431949873259212) 1
(0.0116528484069909 0.00761796226877822 0.00613221069141536) 1
(0.0103497298345411 0.00898978121505385 0.00235315039781414) 1
(0.0131858344277373 0.00518049418476709 0.00446877273303619) 1
(0.010553469725362 0.00367348918768007 0.00169458755161381) 1
(0.0100688568854785 0.0072015849886162 0.00212353051523946) 1
(0.0104116352249596 0.00478715551357515 0.00284453477266675) 1
(0.0102878396703461 0.00372231856919447 0.00861003180213933) 1
(0.0111103158371844 0.00275238737482207 0.00845511281985141) 1
(0.0102936495939557 0.0057008662331741 0.00797716849365221) 1
(0.0117137299743156 0.00293799250545815 0.00418330408776727) 1
(0.0119959480811905 0.00228684568439347 0.00692781233489045) 1
(0.0112269378408819 0.00504281093719241 0.00835508366917404) 1
(0.011105252831784 0.00301946362823315 0.00690415284792415) 1
(0.0295622535208355 0.00790122273398898 0.00526341808670486) 2
(0.0269679129025122 0.00470985263163884 0.00344254942669066) 2
(0.0296520338757333 0.00899289491446469 0.00335035706762378) 2
(0.0294488933344312 0.00100995771755153 0.000743112646012012) 2
(0.0288506137654125 0.00833210198791653 0.00223668268857937) 2
(0.0265679834346001 0.00512490951502622 0.00480434065302669) 2
(0.0293006351528824 0.00417294784389446 0.00302018861195245) 2
(0.0284802779880402 0.00697912108406063 0.00183250644542932) 2
(0.0264691991190394 0.00374360211195034 0.00385692041966861) 2
(0.0296243799459353 0.00147446515829939 0.00441912226448094) 2
(0.029907016942108 0.00134036678830276 0.00492729716309357) 2
(0.0293677783161977 0.00347008676831292 0.00881440256276362) 2
(0.0297193889856838 0.00409456365765378 0.0071243654317666) 2
(0.0295526989254641 0.00337679890159217 0.00819725563780152) 2
(0.0288527552088589 0.00634056381073508 0.0081936787597798) 2
(0.0215540170167767 0.00955810151099884 0.0080260714507761) 2
(0.0265666530172923 0.00863568413132784 0.00705424677568788) 2
(0.0211528310271087 0.00919363777608966 0.00390403024740737) 2
(0.0231781057817536 0.00706238659138753 0.00450336677859253) 2
(0.0244847642622517 0.0091262757598197 0.00692618410973539) 2
(0.0249706618746378 0.00604696734457201 0.00572151787755191) 2
(0.0207128323033936 0.00965278961236747 0.00549559782159301) 2
(0.022054448009479 0.00867236677544627 0.00528088328705485) 2
(0.0258860587195547 0.00589251094011056 0.00547544439190775) 2
(0.0234772662649833 0.00873586758929511 0.00159613744865537) 2
(0.0230550155419913 0.00953833438919458 0.00218349302584164) 2
(0.024520565418402 0.00848968137543816 0.00360803442768459) 2
(0.0265943561776175 0.00809146268158875 0.00461911311004505) 2
(0.0266598161519376 0.00972195413743277 0.0045778836800851) 2
(0.0263598859082014 0.0089085165372375 0.00216083953022782) 2
(0.0295934635075704 0.00997939214752103 0.00185448753847707) 2
(0.0247850857064862 0.00282781955722411 0.00411884425595653) 2
(0.0217389792665148 0.000751410716989102 0.00164802653686516) 2
(0.0234804124511055 0.00138752800713609 0.00171801219145705) 2
(0.0248079748383012 0.00112943614184589 0.00261165108366638) 2
(0.027578975600784 0.00171909385907936 0.00506377787410239) 2
(0.0241579570198656 0.00108104893600467 0.00201645319186445) 2
(0.0273927001730398 0.00233459474665492 0.00448704641683273) 2
(0.0277050402231276 0.00180072765201189 0.00665254075883421) 2
(0.0230984772493628 0.00304480096616549 0.00356589412629424) 2
(0.0273104287061974 0.000161840926371735 0.00910701559165597) 2
(0.0236037299636664 0.000780650648335186 0.00888403807535715) 2
(0.0257482240694795 0.00133153695084614 0.00795551815340526) 2
(0.0230385251589967 0.000391966771969425 0.00558670662106826) 2
(0.0246289463899073 0.00187988606053393 0.00744373281547334) 2
(0.0266439394049067 0.00184789572879142 0.00793152736514033) 2
(0.02337248345426 0.00116139822273237 0.00810515348124845) 2
(0.0269756133743358 0.000432879459837227 0.0075296993016641) 2
(0.0228889573464761 0.00785481872663409 0.00128687856679589) 2
(0.0234507382182574 0.00451365399337339 0.00203676812136566) 2
(0.0215202094367986 0.00530110267486398 0.000226189894982607) 2
(0.0239519665364237 0.0059098612205212 0.00266813005458653) 2
(0.0231018507469616 0.00811022168939461 0.00104054198508111) 2
(0.0229056293269017 0.00472800231646486 0.00013531331947144) 2
(0.0265726470586226 0.00869782551300572 0.000322784278591559) 2
(0.0210225499747469 0.00516210210016657 0.000848623161620221) 2
(0.0289802855594164 0.00166825879129695 0.000978705549332215) 2
(0.0275348036863357 0.00248280987008103 0.000115240986155865) 2
(0.0229302551129004 0.00244827112308178 0.00150390022355852) 2
(0.0267730210382632 0.00350786753841275 0.00207732600485839) 2
(0.0265554976881297 0.00448630381490242 0.00297450598107124) 2
(0.0238004040039614 0.000848558646554292 0.000274870435222443) 2
(0.0251764098960552 0.00309688826762722 0.000275711640629606) 2
(0.0278129735050287 0.00419036478947314 0.000959056008664074) 2
(0.027633337509006 0.00560514048176648 0.00916919022655618) 2
(0.0238177151765202 0.00187914098636911 0.00875606531228994) 2
(0.025910726908024 0.00552364002517832 0.00599134248431485) 2
(0.0282065896520459 0.00657105163837967 0.00937644707918222) 2
(0.0273821416285786 0.00447939161951171 0.00817285533613949) 2
(0.0278153899864366 0.00609599312116169 0.00895666624941713) 2
(0.026833355077051 0.00450963009993414 0.006974785786963) 2
(0.0234138930411259 0.00685484516328239 0.00744129845037991) 2
(0.025754906820835 0.00663356253260845 0.00701965348979714) 2
(0.0220271105853644 0.00581805931045883 0.00876504044660996) 2
(0.0224927591557631 0.00302372105114872 0.00882021765873786) 2
(0.0238111604257433 0.00463928661773386 0.00941878455307142) 2
(0.0227840621612719 0.00784776887664789 0.00935308413531706) 2
(0.0231576904056567 0.0042590473972699 0.00736475522262177) 2
(0.0274256827542935 0.00989445130141361 0.00992514737866033) 2
(0.0212226566937251 0.00758388924832106 0.00188292891528514) 2
(0.0215563488214478 0.00792687921268777 0.0078280194290633) 2
(0.0214102571121679 0.00543284797852111 0.00449077910382192) 2
(0.0207730439189528 0.00919294348198706 0.0072121829368121) 2
(0.0217278214231371 0.00714836298245037 0.00181046214968932) 2
(0.0219141932287204 0.00715534341968484 0.00683800670991546) 2
(0.0204251373080198 0.00894175703525709 0.00315798669594757) 2
(0.0200403644288082 0.0087051745858464 0.00315039372987897) 2
(0.0217263260785722 0.00449052347593577 0.00705539732828521) 2
(0.0211503614753498 0.0036516753172487 0.0048817029136096) 2
(0.0218370492133912 0.00411320376078491 0.00524601531104794) 2
(0.0224957848449346 0.00357424114172248 0.00740025318112904) 2
(0.0225879580736219 0.00377314328445836 0.00493362466602376) 2
(0.0207826806140597 0.00663096258302856 0.00678791633865027) 2
(0.0221356685185829 0.00448264037759586 0.00665530300553939) 2
(0.0208464985382292 0.00414756448099803 0.00800190939181375) 2
(0.0387030621689573 0.00539462555438233 0.00340300405095727) 3
(0.0387690566586181 0.00833840615805515 0.00762947456990785) 3
(0.0397840785645754 0.00779753577549267 0.00449941755654814) 3
(0.039903784025803 0.00919263099043908 0.0024019655388666) 3
(0.038040502715469 0.00722309197181319 0.00521824680168441) 3
(0.0398041125111136 0.00817874575518873 0.00410779047365393) 3
(0.0384547671104507 0.00766989011665455 0.00243714952461385) 3
(0.0397722439009616 0.00970046973718631 0.00638409826571788) 3
(0.0370032798308921 0.00461039182797846 0.00661877146379593) 3
(0.0392702616869079 0.00569129353172107 0.00908263479084697) 3
(0.0393264396738661 0.00146634886719104 0.00250484109358469) 3
(0.0370215786116279 0.00560948002581393 0.00656390206303426) 3
(0.0379046512318171 0.00294883831449701 0.00323212486634938) 3
(0.038789972802771 0.00232852218977561 0.0086157587384711) 3
(0.0367986739267619 0.00395452793877066 0.00444587154821484) 3
(0.0392225252513208 0.00363240660488199 0.00736730143818079) 3
(0.035076737374643 0.00594227750405027 0.00540785592565806) 3
(0.0329709689328255 0.00934803208463512 0.0089224980793272) 3
(0.0343471849662951 0.00902727654658749 0.00890007024998384) 3
(0.036906563708737 0.00900252903933842 0.0072929657278033) 3
(0.0325500625511154 0.00816751856531388 0.00757388653360445) 3
(0.036953048206845 0.00967172022208532 0.00820866532666171) 3
(0.0320317938461624 0.00859810514945688 0.0046520859905918) 3
(0.0374410280219355 0.00787408462845592 0.00616119308680519) 3
(0.0361899128038639 0.00968875567242661 0.00180120755836958) 3
(0.0382736066839054 0.00868666625417239 0.00496482252466366) 3
(0.0342476561533988 0.00708664305244211 0.00391280885911859) 3
(0.0330350004125006 0.00920567297250132 0.00289164495827739) 3
(0.0339606584656905 0.00969562824028339 0.00113428145937073) 3
(0.0352209787953324 0.00828872559776039 0.00319466400500859) 3
(0.0373194667504909 0.00790761354010579 0.00713833865732996) 3
(0.0360771481664332 0.00210266929142717 0.0046269167246283) 3
(0.0365829208826012 0.00232317458648149 0.0032974746806917) 3
(0.0347439384348362 0.00261022434539443 0.00345643549991697) 3
(0.0340653960838926 0.00148433151478608 0.00323954701085595) 3
(0.0358749012074983 0.00072981614869489 0.00398919503896424) 3
(0.0326006731037227 0.000604856969833722 0.00158939406029843) 3
(0.0363631040337052 0.0006671826038591 0.00285142343511248) 3
(0.0345624080488068 0.000215651816659399 0.00239889569737288) 3
(0.0380428312284205 0.00176638554508379 0.00297948948264018) 3
(0.0339956142369381 0.0013910025881624 0.00453933768744728) 3
(0.035529513618581 0.00104780244462654 0.00844013900863411) 3
(0.0345346510616981 0.00341676600620287 0.00552735297098659) 3
(0.0338770790718525 0.00350002737130206 0.00419077654177093) 3
(0.0346095443798448 0.00297096172705841 0.00468276919151345) 3
(0.033758931045024 0.00349130095710864 0.00451133305002335) 3
(0.0325741055338171 0.00180466313308747 0.00492183840361959) 3
(0.0313299544703811 0.0017963589704838 0.000691859416335045) 3
(0.0302852851524936 0.00933211233457579 0.000191204669977889) 3
(0.0328447098245074 0.00419451842040006 0.0026943127746358) 3
(0.0338369526624375 0.00391707493019728 0.00296696585636932) 3
(0.0324917129249605 0.00581241245903604 0.00112153008264302) 3
(0.0314901302356462 0.00948677428427084 5.5023282908575e-05) 3
(0.0362147502609002 0.0071620826748549 5.67617834901846e-05) 3
(0.0347001712527138 0.00394160698326795 0.00194470710329638) 3
(0.0355355900279063 0.00467884491684293 0.00383549525232938) 3
(0.0386402493634788 0.00493761016718489 0.00102116945897043) 3
(0.0359285580711207 0.00591191285050309 0.00184547603663274) 3
(0.0344366034718529 0.00365471067427785 0.0013877689208064) 3
(0.037728348963821 0.00193377757825433 0.00136952206046766) 3
(0.0340631610093538 0.000815032056415266 0.000116723553204903) 3
(0.0375723220261573 0.00693905557446824 0.00842808618472025) 3
(0.0346779911877279 0.00112388956886958 0.00976295460206734) 3
(0.034505598134393 0.00413507749114634 0.00713543664373839) 3
(0.0369536924131309 0.00606559109494134 0.00877827204170186) 3
(0.0351412647287558 0.00450217863131643 0.00612633004014677) 3
(0.0397717728612965 0.00675423912634459 0.00987300201014159) 3
(0.0348138480593711 0.00207795231885937 0.00814441299813479) 3
(0.0353867192037981 0.00409764732034768 0.00845360608145322) 3
(0.0368988226575774 0.00275486897402008 0.00984852821461502) 3
(0.03451336926331 0.00498862794378335 0.0085492198809405) 3
(0.0325794375856273 0.00361049721026591 0.0075102650124265) 3
(0.0315778992883444 0.00159523980918417 0.00956303273051917) 3
(0.0346461505448514 0.00511030656411029 0.00905519706668832) 3
(0.0315795196840532 0.00838667425790439 0.0089129031722141) 3
(0.0351137239721277 0.00647499358708773 0.00857571520402116) 3
(0.0355796897558783 0.00728358424543865 0.00956366579623177) 3
(0.0343701267204557 0.00668996795806711 0.00838055826346755) 3
(0.0314381195758483 0.00849867684852766 0.00800851837311731) 3
(0.0308752748092158 0.00843023430895075 0.00387430556837421) 3
(0.0300477864190861 0.00838259379558474 0.00334380998628001) 3
(0.0302946391038348 0.00903494517338311 0.00469236541678656) 3
(0.0332643947618432 0.0059613823950624 0.00570799542838527) 3
(0.0326609458101354 0.00552237530876264 0.00333670094739849) 3
(0.0312188003661261 0.00725738223134012 0.00316075057093691) 3
(0.0311845557012335 0.00760393241446204 0.00822416348010078) 3
(0.030753852369996 0.00121283784795194 0.00514453768263296) 3
(0.0303646853349053 0.00274386124674725 0.00723616409669988) 3
(0.0302338171866325 0.00506858232457399 0.00561355882894885) 3
(0.0322911739315099 0.00285643953907554 0.00768884627502592) 3
(0.0319327095969417 0.00209199316829343 0.00341762147352126) 3
(0.0307042086491637 0.00588700121713257 0.00692967184293122) 3
(0.0307190515275983 0.00174083043079971 0.00255257906162523) 3
(0.0415192773638077 0.0090190905975321 0.00499961744229337) 4
(0.0441537721213808 0.00842134936889165 0.00460447451719959) 4
(0.042692746233537 0.00894075261702069 0.00666909932964257) 4
(0.04284639875131 0.00886503776884888 0.00290871072772918) 4
(0.0411873382339924 0.00893926636302249 0.00759949640520579) 4
(0.0450201310113529 0.00617776772943019 0.00562809217270884) 4
(0.0433065654435046 0.00904371999315021 0.00724954665333264) 4
(0.0458378556807594 0.00912442224818699 0.00538662461853777) 4
(0.0467578436133535 0.00933736447839061 0.0044690356728144) 4
(0.0421585191146026 0.0089523331758331 0.00190347929219703) 4
(0.0440041518567562 0.00854475487818464 0.00192760980201479) 4
(0.0424004593228582 0.00971215539053675 0.000989863282478272) 4
(0.0442719471774574 0.00807393866478099 0.00419019637353076) 4
(0.0418358311643751 0.00867001346339658 0.00155393814259194) 4
(0.0452674190721706 0.00880169582475228 0.00123631844207859) 4
(0.0456606680738331 0.00256897560227229 0.0049425105643895) 4
(0.0422210483306238 0.000140435376211467 0.0019132427859183) 4
(0.0483011656457167 0.00163243266648328 0.00468235007798556) 4
(0.0474201192606652 7.60161329501763e-05 0.00625550740956152) 4
(0.0452228400632338 0.00420393826007279 0.00425693699494859) 4
(0.0486890722164322 1.60685366336999e-05 0.00120796105685281) 4
(0.0461812364629532 0.00148708190221305 0.00178928005780024) 4
(0.0439001817496841 0.000363273398587829 0.00201607161037785) 4
(0.0431645652077584 0.000984342512936447 0.00359778024936949) 4
(0.043437410749666 0.00173910819714235 0.00608059067744234) 4
(0.0450298891679249 0.00247520759192662 0.0074073278255471) 4
(0.0445895617300882 0.000942684241303535 0.00781481447664619) 4
(0.0422493175138509 0.00117754270038416 0.00766873904017656) 4
(0.041717947919856 0.000685973422398352 0.00853384533808859) 4
(0.041612001305072 0.00127092930132422 0.00579148841134506) 4
(0.0470891509487462 0.000445211503961467 0.00770149221973831) 4
(0.0482618959494957 0.00800321313562583 0.00477222636000652) 4
(0.048570635739129 0.00365476051465626 0.00347212439776028) 4
(0.049117520341801 0.00464383080588076 0.00207580294703236) 4
(0.0481693020829022 0.00707344130527888 0.00655440084641961) 4
(0.0481864103728511 0.00797283436223855 0.00650619091702014) 4
(0.0493144764909609 0.00899891041241064 0.00888850788773871) 4
(0.049942356016001 0.00703841845244762 0.00118875449277065) 4
(0.049963742544455 0.00456333496281346 0.000834696087223108) 4
(0.0491230936428459 0.0087565705445804 0.00378591987115721) 4
(0.0458254786111262 0.00530138266008178 0.00572830295630149) 4
(0.0476551839970547 0.00409377272963043 0.00573847540158129) 4
(0.0479557964171261 0.00249980948584058 0.00517817085246007) 4
(0.0492077956329902 0.00182711234281088 0.00458730804975227) 4
(0.0495864824345893 0.00157339150357496 0.00493024592710038) 4
(0.0484051675210371 0.00206755265855131 0.00411834645932382) 4
(0.0469595656444182 0.00570647749002058 0.0061751463399642) 4
(0.0486331897634899 0.00309141857008415 0.00483055057938651) 4
(0.0407608443216895 0.00436403179247948 0.000146107933818502) 4
(0.0422376130949573 0.00537300759699312 0.000150478622705084) 4
(0.0425257611252277 0.0076789731124425 0.000972766786822685) 4
(0.0411340898244684 0.00617107943023195 0.000878608978658573) 4
(0.0434624754005139 0.00776358506901138 4.66310842547024e-05) 4
(0.04126101911879 0.00826444996837788 0.000450311792105911) 4
(0.0441157794890038 0.00703342520931731 0.00256350765759457) 4
(0.0446683023636233 0.00251754324604351 0.000806606157983314) 4
(0.0487883848034205 0.00112582677239457 0.000450051272565108) 4
(0.0460819363529114 0.00376225908925731 0.000534071575411534) 4
(0.0466826545474932 0.00567620361346132 0.000605235047034416) 4
(0.0449739841165017 0.00330193384904478 0.0012021419905229) 4
(0.0460180437113914 0.00365832216752532 0.000817896943151677) 4
(0.0485472709803329 0.00712666589598848 8.71205620437898e-05) 4
(0.048389666134415 0.00707559765202026 0.00898271503123164) 4
(0.0473323585329501 0.00362745038741119 0.00744731888866857) 4
(0.046568734903391 0.00170543690766896 0.00837254777802398) 4
(0.045375455864543 0.00517254712680321 0.0084081265344412) 4
(0.0427316516443749 0.000763889894673699 0.00949833042782777) 4
(0.0442319965032359 0.00130568848825765 0.00901214329862539) 4
(0.0471572462995047 0.00268445318427425 0.00846925138520195) 4
(0.0448733771624954 0.00611145765668672 0.00627259008384071) 4
(0.0482783924770102 0.00841807173427673 0.00847177114158095) 4
(0.0464858867203823 0.006688194886371 0.00700287513443387) 4
(0.0442453954751372 0.00794551453871213 0.00945011703565511) 4
(0.0427131551854879 0.00429559337585252 0.00731744327764906) 4
(0.0437899626181453 0.00650048704886357 0.00761145952285633) 4
(0.0418993428020658 0.00850693031218333 0.00854557729108402) 4
(0.0428770349836908 0.0040961918787969 0.00992439551767228) 4
(0.040044965460109 0.0074907192444036 0.00700661480679662) 4
(0.0409758819703705 0.00457462447056111 0.00154185214110603) 4
(0.0411326776876289 0.00513988254449222 0.00177733957640223) 4
(0.0407617440955063 0.00416970412379316 0.00407327177360008) 4
(0.0406709837856058 0.00675119044768556 0.00165392737257209) 4
(0.0422134577477101 0.00515478183355158 0.00326254775595219) 4
(0.0409685871666014 0.00791696214840632 0.0013468879869747) 4
(0.0436623642092819 0.00412988806965904 0.00376364240911554) 4
(0.0400629940806313 0.00901913809674516 0.00270135242518135) 4
(0.0417653732851162 0.00248019762992724 0.00454587584332424) 4
(0.0420630150272396 0.00233547920669826 0.00335419971625035) 4
(0.0419202374108569 0.00284184648668967 0.0035451622329048) 4
(0.0401634058311599 0.00716322109681693 0.00952179200308576) 4
(0.0402801020970418 0.00303439762472044 0.00381624034902321) 4