/*--------------------------------*- C++ -*----------------------------------*\
| =========                 |                                                 |
| \\      /  F ield         | OpenFOAM: The Open Source CFD Toolbox           |
|  \\    /   O peration     | Version:  v1706                                 |
|   \\  /    A nd           | Web:      www.OpenFOAM.com                      |
|    \\/     M anipulation  |                                                 |
\*---------------------------------------------------------------------------*/
FoamFile
{
    version     2.0;
    format      ascii;
    class       vectorField;
    location    "0/lagrangian/dsmc";
    object      U;
}
// * * * * * * * * * * * * * * * * * * * * * * * * * * * * * * * * * * * * * //


47581
(
(1178.45558393501 648.132333627275 985.989845020646)
(-229.908124672917 -1284.4137520599 -266.675047115488)
(1331.55980629021 -663.41481455728 235.107368485083)
(-1442.67527363823 -1922.91509930015 1297.35942692844)
(-1489.13608686819 -1145.70015147853 -1016.53855212856)
(738.30887680593 -661.515006437711 2479.40131401346)
(54.4710155590954 950.117040232691 183.423637966833)
(1531.37730243221 -259.427238383178 -23.9728034765173)
(-1054.77708569958 354.638059468513 517.825690802859)
(-29.8163072640563 -1476.95757964014 -223.453081870153)
(184.865605967939 -1067.76519693172 -26.1848541897282)
(603.157170837104 -805.316685545468 353.66202691721)
(-894.082416734125 -303.430407129543 -718.385354423253)
(578.103564551227 -196.33766326892 -504.776804713713)
(-647.534821180508 786.729984071085 -55.9141013549333)
(-425.014080818003 1274.19077036027 614.646580999452)
(-363.333248828871 292.36663021278 50.2520781470447)
(-1221.68787255931 240.694500395961 164.943366574498)
(-465.570902681081 373.753746804117 436.768832168145)
(82.1135157933905 -644.766468465326 -583.839530508453)
(-634.94251679909 -78.5570540797231 -30.3484053103443)
(503.212338815741 -269.446009712709 -864.101332766749)
(407.245057428358 -924.363529093698 -565.040922163671)
(411.346144323031 1101.71116775423 -388.030856954508)
(-334.444812437435 31.4890838567405 1602.60676950041)
(637.601137554238 92.5633911253128 135.275550255383)
(434.255187465672 -628.932679497431 -974.233139563846)
(155.51366934295 259.365223956466 -269.370443019319)
(-562.772602630588 990.527892784833 775.548980843168)
(-1932.39689081632 -25.202830768982 545.939044208802)
(-1077.36434917043 40.9516654163567 194.892628521244)
(-811.129726906866 1270.05393715732 317.250136685385)
(1219.18409648996 -532.776935555971 -1589.21477711608)
(-1104.48043555793 -599.562657757768 -1418.58121586007)
(755.034663718626 -1228.70098565376 -925.424683649342)
(97.9922984090246 492.436350186527 1085.76411454235)
(-434.414620176851 -80.0134262463289 59.3044828295599)
(-325.831823370317 -9.34402883757164 459.672745423745)
(697.073646753629 -976.134364209914 245.536900335738)
(180.982339576252 -248.968614219028 -318.466319136981)
(-185.665853176951 -274.58648742489 -420.699999809424)
(-708.966745676777 92.9893469678759 -238.64863095801)
(-146.713075264447 226.594758816278 580.177450338236)
(1517.21746955733 2076.29580786715 1212.44558010539)
(-318.223287658287 -38.4064659006372 972.423655595548)
(192.660382004494 -725.007237330498 -717.475383149205)
(340.145345827999 -234.32170589152 38.6677706101322)
(-406.597899785814 630.308805526686 -445.31097136522)
(-255.492417810886 -493.826464256369 -530.922674099647)
(-370.00306200419 -284.718815260263 203.079265026817)
(-159.110891214639 726.362304747844 342.51310426813)
(244.089796794411 -1728.53759474476 74.0264655454186)
(-828.867245916351 186.164269517585 912.49746555369)
(613.425478752698 -281.473102863595 352.502917767293)
(141.949441704282 499.290681487632 294.409376227528)
(-349.635934338377 540.482017817346 -769.422897548269)
(1403.01522661181 -1025.62200692264 77.0128519703751)
(656.111452942704 914.92148322856 270.843343365473)
(60.7204466723037 -1697.83740823747 -134.064860707111)
(220.398957068651 -305.259656278331 601.954130975201)
(-56.1687088178332 638.227427259653 1558.77068971151)
(-790.852442043812 -77.5957799689206 -1044.0137439221)
(61.0064999373924 -14.8441158491311 362.459495283423)
(598.956164638254 450.296242776253 -208.537610929211)
(-730.867368553976 -1768.16051934204 -105.512755516761)
(-479.96445422714 -910.770851735377 42.8685120792144)
(-714.392033071322 -792.864841967803 465.006814378235)
(1.05331175367408 265.973251948335 -1360.67468008384)
(-1105.45946096008 -121.972323475566 -444.279388060079)
(564.746104418182 96.6958954718443 679.599077999601)
(225.519754435883 -469.868734123537 363.221951532663)
(537.200873381513 439.94216516838 -1278.62854323804)
(-1011.42210387799 -436.569329847154 -929.617376920219)
(242.714787460038 465.969526361266 -37.6759875560831)
(1699.83392827862 579.983287323779 -64.1372376468637)
(-655.290995465123 -109.108883781687 1609.50931342564)
(-390.88331753595 -733.55230467607 898.920528092031)
(287.026138711353 0.852080838136513 691.280046798514)
(440.288760233156 183.211513473042 -349.621938780402)
(-749.468128587171 -980.603752427027 -239.844941468399)
(852.304961043187 -572.673397791711 1437.13386174434)
(-484.080787258027 -861.67262390988 516.488902700811)
(293.702295531498 -20.1838062342116 2298.64516925341)
(176.962877512537 -58.4549349765464 -202.019224118864)
(361.279424167069 -698.289416186379 -986.141829543815)
(671.656089306077 -168.018381340464 67.7995343549115)
(-952.540805969851 126.092075919386 72.4484022242264)
(-239.344727096345 -1186.47625600316 511.213888572307)
(-435.876980492451 28.7908165994615 1731.8939952965)
(13.9790705160994 -690.108430941634 -2319.24520290192)
(-634.776964690112 772.457022655222 -87.0315371143905)
(-129.900838601505 1658.34948869009 704.794717271177)
(715.459325633117 -96.1260962335287 -888.155572190931)
(-142.336525822158 -621.235656983836 854.083915329756)
(85.590360043801 -507.625969361785 -273.984115947513)
(-129.430754428306 1564.19620917471 -325.826445497141)
(-721.188464998927 -68.9828973870456 1225.72871029415)
(919.635305554821 521.893830074738 295.089609872586)
(660.005244715645 70.671668598358 -706.055925673749)
(-377.354630525668 -665.574419507892 356.381347715708)
(84.4983396472287 352.473573597758 64.1548916821249)
(72.5245976577017 180.37147157475 527.591276901387)
(781.82091287703 909.495933306308 1514.23769518264)
(567.941777532231 -124.429316656911 -750.50890908153)
(-543.363932369168 -1189.42495662543 326.500276531139)
(549.7950618312 312.484134985339 -374.144852590546)
(-736.928547009459 -918.423023811305 -398.083920134895)
(970.282036896069 949.505490538718 -13.2159417790441)
(1068.16197131859 -954.470055571103 -1295.46381331701)
(-563.428199439944 147.333295487267 -173.928557310208)
(-477.716536950831 -166.211938038688 -450.88867139594)
(1552.81341936683 -958.334334429854 397.00031040748)
(-408.021529241929 -742.647481990811 -852.110949335053)
(78.3774228718714 -594.232166140504 -3.64693762506659)
(1077.47455557248 -1183.32432109167 -640.696246529664)
(53.8718375434791 -624.199197411902 722.835431662557)
(-0.776576196074463 -286.746174875307 -677.206215468719)
(497.24356943777 -845.843176936957 1141.97917316353)
(163.306328110975 -95.5718732010814 670.630548683859)
(467.974048430104 678.246654914418 211.483730766658)
(958.26423128899 -1763.06759701998 243.50633205624)
(-704.562372202378 -1163.82921886976 -624.925377619348)
(-577.336071120338 573.848816276808 -1504.19637972348)
(-204.436051490167 -210.321264110868 1149.88307000154)
(470.716490470961 204.311096658324 430.565060873794)
(-2004.47601470806 -144.885791905373 -99.1292467548677)
(2065.71049254594 -73.1385773969818 1230.77683632923)
(-206.164599041478 -1617.78671527974 -89.344146618741)
(-463.185612784525 18.9906512017603 478.128251888512)
(228.892982380792 -1201.67245903518 768.659095342274)
(284.804608949766 1135.69132786464 -164.377215626557)
(25.9009197726196 -1682.31222298881 726.275092257179)
(554.131031847613 171.15739288219 -1363.69866933335)
(-554.591346794421 -720.987091522334 38.8865580949871)
(1371.13819321568 596.300977289751 -201.851455169636)
(547.311889378874 -732.539768609461 -1035.8230734128)
(-409.054560374445 -323.789103677703 14.2614160314535)
(-30.0409322384922 143.458885728198 -647.892213923667)
(-967.958935756189 683.668315316318 -18.5314770310357)
(724.690322273069 736.843902047922 724.1828698132)
(520.710364118843 128.581307937088 -695.112957498066)
(420.174015399685 -527.431879277179 2046.92378067631)
(707.283483510036 258.642758815308 537.107669790452)
(-46.2693995105904 533.968004782714 788.655750236552)
(468.941401965293 118.1191679486 -358.85159286595)
(710.465432431255 -1181.61937608192 508.576695738262)
(-745.597108532825 -512.982593531985 999.003229200552)
(351.171429306769 415.054938805737 -343.214318223667)
(-956.61950669702 424.591322449217 -1706.29383769517)
(23.186909336861 98.099100017423 451.574807355644)
(-572.554239698958 -149.589449722784 -609.742363817446)
(832.179288037058 -786.211263732036 -619.641368787916)
(-158.399674334413 -509.034099107727 -365.172512592047)
(-1084.12048125914 -822.262491887265 654.716821551041)
(-1253.81905006701 -529.852539304448 -190.851084227036)
(-1141.94369911597 -272.689510034297 -444.757721504376)
(-1323.30339151078 701.094656989086 -598.667773682109)
(56.0123037414958 -351.996953604637 368.679603537913)
(932.485008094379 836.968080522141 -97.5265428690784)
(-505.361822001595 -483.134110848627 -871.25919385226)
(1646.63554678603 -140.718803385694 -358.917936915625)
(-406.710930682709 600.32667591312 1482.32112898384)
(1005.68959535802 362.359436428587 914.42716369379)
(-435.171456115251 476.953406670622 -629.419444388825)
(-641.450617215314 1408.44680301767 654.495693490432)
(21.3893761011144 1102.36502617877 560.693672483908)
(1344.09451681873 -2030.49806764255 -780.309378062369)
(1414.48258513046 -832.643465289015 -1590.96917672966)
(218.027210631047 -954.681250392591 115.397318677881)
(-804.64382499494 49.3943647110887 -994.497790625698)
(196.289590730224 731.871313910838 -258.076294563169)
(-1548.31250652183 224.547064473344 308.544256590606)
(-290.725074738453 -897.127017536161 602.766050164625)
(769.123069235183 -456.308946257032 -1180.20221415395)
(631.230021621742 256.807908028684 858.234764940212)
(-281.3287021826 -1246.21773390904 -501.766549626623)
(448.006531412388 -14.6187471447034 -485.044730641835)
(774.503675936965 -502.21878493706 1106.17095177939)
(-343.35580409203 554.566450229796 -1109.83561142568)
(325.757195400294 1.45228020945795 -78.3189805066967)
(-913.8363127579 296.030964322327 920.345742163424)
(-1306.92359528448 1666.93451068542 932.474990759269)
(376.172680203619 -1368.31126442014 -1101.72104489859)
(504.763354663042 -207.28593726937 -174.022194296481)
(-422.170972679096 1414.38526597755 502.26009573828)
(365.65736443179 -890.492368780884 -85.8609574310189)
(1033.62986044685 -428.097939296488 -727.430187702754)
(-41.7713268665609 1043.51475671543 1809.04745528213)
(-598.425055979097 -145.771545467971 -487.284797142475)
(-445.052776021168 -881.699367987801 232.900869733998)
(665.492515056195 947.208964086038 1013.46180966831)
(-377.146439321622 539.036149371076 -35.9370739723343)
(-344.683348570643 921.721404465736 205.142089797785)
(583.561012010192 -197.866853639609 -492.117537296008)
(250.187596283076 1421.20941070592 -85.7551259106393)
(-95.0226881388023 -837.846942198845 -872.613989287473)
(1468.11428400142 -995.797400100542 -350.260756143425)
(45.3550102058198 603.005122243082 -672.290340577771)
(652.62180885091 -438.672979730777 931.983812610496)
(1340.94979919061 544.041102218936 -622.207515242525)
(359.440771314686 -516.307963249829 223.234702105718)
(136.064725344296 -1028.21582340972 -571.055202678263)
(264.07807790765 -292.015971216539 273.218563378624)
(44.4615842509352 -800.014198220813 -592.113186686634)
(-1276.58412789054 270.878771559629 899.236816579563)
(452.972911109671 -223.542375468806 -1031.78953693783)
(-224.795294767172 -781.974606223395 -267.364722182585)
(984.553324256717 -282.158730825792 -934.607301835736)
(-10.1216720952469 639.714695500909 958.462236722553)
(632.905707434972 657.903167137924 -517.5195916453)
(416.875083177677 -334.650040443449 871.84437583117)
(-903.832259878551 439.265472976886 -1392.98923349828)
(-538.773028511576 -378.878945247741 1368.56179127512)
(-440.646484405181 745.461406306092 -300.467188052691)
(-389.291976893642 1270.40823592851 -184.313947716533)
(927.156072705578 -240.5440264533 -596.192875684395)
(160.924072473073 828.295770299726 1302.92653021999)
(-297.558207972785 957.979953710416 -416.408524374887)
(-170.58357317599 1723.16727417794 -986.403496625166)
(810.889347311723 -95.9166930634346 455.236058092375)
(-686.128808274728 9.57613036260772 357.195125271298)
(1362.63596118058 -271.138309522215 -539.534878882987)
(303.298656320874 -826.27456552938 127.923682006126)
(-2469.4951587813 -172.321841595917 1258.10154759223)
(0.299993992723809 -212.234678507304 336.435908965644)
(-317.290177943059 -237.71554043617 -1850.21917366123)
(-108.966226031552 58.9161198277745 -284.131009559027)
(395.843248136489 -511.712885072612 -1638.35353081245)
(621.372340539046 586.941761341449 -379.909678145463)
(17.5886788279767 -510.018648508399 569.235137071517)
(203.385283604628 -237.048629885598 338.729645629126)
(-693.734790062748 580.625606639899 -108.907233424794)
(592.370385207187 192.375183103348 175.426425404285)
(67.046098996538 963.594269147609 -104.851067045184)
(171.925005136714 -910.068362227601 710.341083908025)
(-489.259815947155 -60.6128885026013 -666.624973605245)
(1849.86097994095 -99.4122701131757 820.353407091496)
(-847.337777044802 -746.594276245675 561.990490177216)
(410.223661279666 -1343.3630955966 397.034430782578)
(985.564093805723 631.174512573982 2006.94179947966)
(240.225694282134 963.411259956164 704.49974448877)
(-471.215082172069 -1201.72985584171 1011.39595754265)
(-353.823655856549 -666.203360960444 386.389547083264)
(1384.57843368648 -296.594338372535 -225.055960590036)
(732.038851047297 107.397340330678 -478.749714845907)
(409.657825708535 -399.244106432583 -11.7542419647518)
(139.497678809768 159.534427837358 -453.176954544099)
(1493.23377368002 982.285834472311 245.698101547423)
(718.929605253762 -1385.72606694166 543.750753091386)
(641.774725388233 1.55298600676109 -456.505279546777)
(0.311100784138995 -1398.66424852857 21.5510549622351)
(502.04040198878 -169.097047879797 -636.244208348705)
(-790.218090117672 -146.722298907615 -824.864444786366)
(327.55545967961 -476.599967508175 225.350693118588)
(-150.88759035402 -200.973186802533 786.565078443128)
(-294.085935717334 -119.985254841518 -162.75741873137)
(-1472.77584601337 396.559219428916 148.738973478987)
(697.717621988658 -224.103563619595 -393.490051447847)
(-365.659271018527 -556.728343211811 -763.704191403635)
(405.233864303613 -150.582654901955 -646.006027169086)
(77.1339575236549 -1122.44315929533 18.0835672387756)
(355.206647986073 92.1773404978074 -986.047819702595)
(193.594589810157 570.405068891334 1477.73743562048)
(564.971816846171 481.140364868517 -461.708861974267)
(-1860.58650318296 1182.721268268 -965.700207809486)
(-299.837856369198 20.8586794302655 -459.837115757285)
(180.473530916576 442.548228695744 -1087.3595599791)
(2225.77536628588 -1643.50856441243 -271.279431874981)
(455.353015191342 151.990307995907 -792.848453952598)
(471.203935888822 451.908062232656 -128.742743610901)
(-843.81454330356 -698.22514591021 -1047.65981825846)
(-21.2842433630654 -798.006408166421 -413.640225054654)
(-979.293508873536 -1829.48886952335 -433.503792055998)
(-850.95798562042 -1200.73051602591 331.845298224576)
(247.531767898728 -1118.04875318744 133.081360722017)
(596.61979625674 331.441807080084 -1300.6549897483)
(-655.688207211924 -123.981557643934 419.337420405581)
(21.7650982721546 97.2347494739431 -113.479822699162)
(-166.76519956859 -346.745095565772 578.72665220133)
(-1062.80438379567 280.713558719904 1030.62356269665)
(-580.435047468211 557.333207781056 -1308.65818783342)
(140.398365095923 608.149006525198 -613.078790034872)
(-986.632158695798 1470.89868627815 -18.7835269949073)
(328.447356329721 -1336.67103983598 -239.938017891083)
(794.85499693793 34.1655816754093 964.879598360582)
(460.945581466459 1308.67369889523 75.2461884119286)
(322.203492981895 -151.514302189427 156.481147525842)
(-1078.77270037765 537.700341721597 125.171628390339)
(-942.857269670414 -632.779110720254 -551.029188516614)
(927.36192936208 -156.750546290644 -318.942607685547)
(26.1648363882967 -514.113493366076 -615.250184680307)
(359.571218108503 406.936293480828 -474.438752487741)
(1097.40373065586 -15.8791389862193 -321.480022616186)
(258.500369750462 59.3089886614751 -1152.02965760881)
(108.039596882477 -925.537509406714 -914.4846097247)
(497.185677620442 -1095.33383081247 1161.11952785095)
(-9.65400763302156 -1006.42619297877 -1022.7904686418)
(1082.27199042526 957.577611151117 804.652421105337)
(-349.068862847901 -581.689157255784 274.653920052533)
(-352.994080613049 -1103.8651755293 -420.515473785255)
(1198.0096250079 -699.527746745859 -618.161192669763)
(293.931225675989 -874.016730659154 -1314.33379907555)
(161.068312648645 695.722665259792 -479.876088686077)
(405.54787131434 -1347.81964732543 100.612795046996)
(155.90568664403 -367.488438338669 -582.522984133576)
(-64.6673640312366 -614.89620595998 473.506097677158)
(-631.192520323083 628.572297609089 -190.45080786155)
(21.6569449226266 -454.055763633483 331.489029269111)
(-535.000196745382 -36.5548058256305 1129.39309934177)
(-475.262330394555 -173.370259952006 -143.979159511992)
(-410.249403772944 -22.4335349805268 -524.994721393859)
(-49.7241202078613 -605.616081890743 -1208.35717319563)
(481.641555063062 -219.50815655288 -110.646975897779)
(-477.683756630961 324.707488534847 -1615.93798849298)
(-278.545192294436 -510.562386109334 308.568941092191)
(-1203.83350249168 -585.351519293185 274.720226986336)
(-145.692358738632 299.132558119454 -40.2129001332919)
(-360.626184685697 1564.65696376721 1528.3579408771)
(-833.528333876021 699.710668325312 -821.58378981726)
(408.952743015865 1141.62348616989 8.72940746368031)
(451.72283844213 -291.778990850776 -820.512028539555)
(1684.62402947288 -295.916872727112 26.9343997952679)
(-699.656479855705 -1617.27178931229 -437.605069741313)
(372.242460365295 -17.2272881671359 -531.762976049929)
(353.761125796422 292.67064196072 93.0137304357611)
(-464.737134443596 -978.309335698154 320.921120154618)
(967.780032752219 -620.038845936696 1768.37270916589)
(725.692742042024 -785.753365956398 739.133296199698)
(-425.96239366171 550.790106656936 -275.862042088087)
(694.427461461798 889.907130655665 857.216982534256)
(56.1340543241832 -745.084579473345 535.010601445094)
(-899.058110002091 -466.751015999757 49.29289157417)
(-1780.17331019945 -793.364934120248 909.687701259744)
(-829.125654863991 -8.65155756293026 -956.22421710494)
(718.745529009279 398.076892333705 764.001761101835)
(61.4518478021552 1494.57008455028 773.468740612953)
(-307.092030161192 291.467461298474 2188.56679596628)
(2.05579819248346 1342.72808071357 -514.962673217034)
(1393.58060436575 -454.83947826079 426.946674475289)
(1291.6646557906 -545.264219557033 1122.52045148862)
(-35.7504034727374 1556.91569630775 412.158728383676)
(713.928560722793 -169.874055334689 470.802027428475)
(-61.6080088573527 1782.74462808589 -63.0960384488359)
(-301.067842520047 -498.911759172021 -209.566245946987)
(303.757485746384 381.093761098612 -130.662270599545)
(-729.961280337973 -1463.1266243914 110.939582190518)
(685.895664716621 139.658211735237 -995.59747113245)
(687.011301465501 -816.64331044477 1044.49825684998)
(-624.078155512157 -281.817742041247 706.328291874796)
(288.705053441617 1047.42201631755 -1360.25131308298)
(-250.528870638606 -1061.61477417795 457.155599232806)
(-290.614368253347 350.679383539506 589.90217176836)
(366.355714136357 -715.029778605997 948.71665003608)
(-1619.82181921521 203.72846808501 -1327.18574136897)
(-477.636030491716 -899.176101353339 246.389817980091)
(-365.391244857287 470.535995590839 156.712991871235)
(-147.457151657255 -472.423395518334 -45.2873621103821)
(64.5303924061073 83.5137583584173 -939.434536577439)
(-436.359374367913 219.303874053329 -972.618430523854)
(-647.334987692121 -1723.95566812861 -390.380246336216)
(-1450.51022122945 -396.378011901344 135.439679402161)
(-371.4066972905 -307.102008127235 -827.881462840037)
(33.7105233964443 1295.79112712502 -197.308294545072)
(-474.461534562225 570.256348342487 -270.817152853132)
(-250.584556194213 -472.445531169056 -830.106837658919)
(-647.381182745361 980.77745341516 275.622249618662)
(255.666514076296 352.459101915722 179.403374874907)
(-166.237346194304 -306.840848240877 -35.0548604501098)
(-599.991866574608 -436.451253231357 875.335231406237)
(-849.312939617023 -553.376093835294 50.891625558707)
(-1283.52817950372 265.279129910514 370.132423118412)
(601.763646413862 -296.145462413547 462.80300818556)
(1130.53494794484 1147.44425773717 296.008419013421)
(-1049.66177946515 1545.00532183453 1095.51076121834)
(1329.1647574308 197.16852431171 155.010600869477)
(640.139444766194 1142.25845137792 375.958291655649)
(-2644.48617195351 173.70710854605 442.537735807526)
(-564.225893348539 404.740906565422 -1420.23321411116)
(661.166247852057 -537.380982910493 -91.7040020653929)
(454.778452522973 298.244594149804 883.845616652611)
(1365.62785038748 97.1438139000807 -1556.90497119183)
(-353.298351126992 945.696013350362 -396.468189724338)
(-1389.30951171373 -396.355501621733 593.065496489662)
(-72.0098124091677 1044.61447167424 54.837102826005)
(947.652583337671 -356.688695419614 520.021031108345)
(-1073.53712729248 -218.398286184066 -998.238714011612)
(-1440.48653904725 -642.029945809458 1529.64283643266)
(-244.026398761495 -318.315771488957 -930.617715408377)
(-572.294002628957 17.3511716621592 516.017784167603)
(808.094938268633 192.833081794606 203.525821027825)
(570.880192977266 2067.60375042978 301.838236480575)
(412.671264106705 197.324841526441 1211.95376985991)
(-786.704876294252 432.593962032635 -1182.26441852627)
(916.957284802362 -481.950203674689 1513.95146614015)
(-1489.96268577986 -1239.26456924995 -698.854444378835)
(-582.003664293739 -20.7826013723413 258.590892310725)
(89.7482830014526 73.175532102648 -472.116403775097)
(-752.406427570046 -71.7250535673728 -537.832814130042)
(-645.462016774732 -664.454740018003 -691.840079407024)
(739.346240319043 87.2040695470865 823.805172325511)
(-916.882409587638 -328.812337095065 -185.619163579951)
(15.5605913041731 -638.693184489305 -1317.94674396064)
(-461.200792914402 -1007.38448629568 -179.207182985324)
(-1560.72100353862 222.391447368264 30.3411843137489)
(1485.38078902125 833.970393743267 -214.622071426706)
(208.840328835947 33.0864110675121 -322.647814876525)
(103.686457284473 -621.8762808146 346.207121854514)
(275.254468335237 -411.815127005233 -715.558457261987)
(-247.75129583836 -856.795298974292 771.738431756896)
(-464.873305760978 -194.565334570146 -277.101777256305)
(-305.599829134763 -536.693474887152 -536.742006010852)
(-659.416655762688 -81.612594835097 838.946820991476)
(-304.021263660644 563.412579631165 -162.666811600441)
(240.837558053951 711.450958832817 48.3930559108822)
(-1484.70698145514 -1178.28698311009 -668.247994940926)
(952.585457916526 691.727116605441 -675.912600307911)
(-512.299406696128 -363.390189318513 -985.235009853497)
(-926.084989548942 -522.903236795732 833.57694785514)
(1180.50260619178 -1441.21168037203 405.434109152275)
(12.5613861590911 -684.001595681823 240.156997092384)
(-176.800857974502 -168.119638084872 -99.8168048410206)
(-862.741109838896 120.684870851069 222.39245576049)
(942.867102103889 551.877446993998 804.480659584128)
(265.3185500507 -78.6078424174254 737.842335792293)
(574.294440853226 -867.663372592897 -135.41420997333)
(672.546701205034 -30.3133154289208 943.853572611386)
(367.709547053924 -1519.68402900108 -1119.73665254162)
(257.517220196156 -732.663215159293 320.390997127746)
(-65.1598068699176 -196.463334518884 1790.14440122322)
(565.34512089447 261.849118095285 -297.671015122638)
(-177.803305287692 -194.171574307133 -586.075785168337)
(-480.355263570466 -186.407119876003 944.672617412923)
(510.244277601187 479.799432845494 1340.6385249452)
(286.645352054894 667.366321798817 36.2642909015521)
(-275.838222854645 154.178097266133 -1282.40966017802)
(-86.5780322204988 -1396.74226449016 -1227.09711454636)
(-544.745387181421 -180.278355200647 -648.714428168957)
(-153.923742490331 626.825532229347 -158.66578366434)
(-343.727486251447 157.298618780312 399.195637824268)
(886.697953638149 -104.116530294657 -595.572457787991)
(287.161691612127 232.473663184923 -130.858980432832)
(-255.196268771616 83.8589098672506 -950.478341811848)
(398.515450173234 1109.85512444205 -1850.75202611889)
(1448.89134534327 320.21316687834 -395.937323110268)
(-357.427845921762 -345.253737961699 640.859124570736)
(434.212056717922 -182.491196737173 -1068.05130637348)
(300.475607444482 -446.061348546619 -23.9659804164769)
(745.034357968148 145.51572986486 -724.751785726029)
(805.575995010565 -422.936042284104 736.921125233862)
(-709.107242291172 -586.113987924276 -477.339009218904)
(586.809695469002 -172.466065060297 611.768595062234)
(-312.594278095759 494.391413103147 -475.761127774372)
(-239.101878405809 64.7710804720241 -96.0436495060672)
(780.794749875476 -257.787665563576 624.121127583025)
(898.333074842393 35.8639953740988 460.842492567046)
(-376.989048477935 -559.921795108014 -1047.1466858751)
(702.083750809946 -619.036220956274 -1276.08730724346)
(301.038780877452 576.542321791261 699.983992724186)
(832.967609734277 144.113559822355 696.31219697247)
(1244.66213303077 -956.349458470046 -696.794328212619)
(-1375.00085293152 831.278999429356 -295.761406050387)
(133.970646662512 -730.664275266312 -333.391686905075)
(345.824638415622 666.991107530924 454.32128060785)
(561.778003841831 -222.236417402832 -762.547247585173)
(6.20256664459106 -762.786231436682 198.47368530269)
(-311.121904322009 377.021330328557 390.464844696471)
(-1285.90998492073 -788.634183035566 -1590.01928943513)
(-99.0289832862178 10.7952992116905 665.284523277882)
(366.925771420058 11.0843748088726 -341.594322790124)
(-761.608492570167 -191.05536375713 8.19388007166267)
(-213.011988957998 796.909511050615 134.764422444871)
(-1197.81734221087 -683.09090361195 -929.474569467218)
(-838.016741645084 1643.75590837796 990.186155168775)
(865.665021050443 -584.470529377663 -691.619167220655)
(883.2529763982 -275.953346063448 -46.7204362730298)
(342.48711462536 27.8700805603966 -1110.44567966167)
(-219.806139807428 -144.559490985716 777.006644718309)
(143.848210926874 191.89547255663 883.172711737369)
(921.523948895987 -61.7972169814656 191.769601647629)
(934.101117496057 -521.522145899898 914.589680213437)
(626.262036687283 -62.891064600651 -1917.70252606379)
(654.623495708779 -390.190039208914 -384.75331389746)
(-423.417581915496 47.3876558522957 -1438.81438770065)
(-270.186215493156 1058.60013094793 -222.612326204882)
(-558.235318317738 -561.35267785495 1466.90105662649)
(-219.617204933954 -1215.49837286898 -536.932669015374)
(346.727221660922 -712.952455023675 -95.3774236508875)
(282.521774958601 1067.49272131014 -278.478907227624)
(-216.36109232762 -763.79722462375 -713.288495870043)
(194.762811280611 36.770823995014 -827.189336480701)
(-363.25657232385 697.9579629159 -507.52045462444)
(-727.097513646965 -2033.2430827469 542.838391846181)
(-1292.04803026165 536.421724461729 761.055598212017)
(-214.361056038527 -1448.99689851733 987.355279046036)
(123.416705129785 -344.684060869981 -668.206913305635)
(-135.638321778906 -1136.45115158475 -62.2115005232344)
(137.037977817776 -680.340677993424 636.274794355606)
(-122.015569869979 -302.564399911173 -374.985693755532)
(137.480138711888 -43.6930512425785 872.305430995114)
(783.259399186697 60.3748777963933 -1348.24207339765)
(-248.504540307392 -358.833879248801 -1473.29459664879)
(-158.598075488498 829.225693929645 -105.785041409504)
(168.578280506414 -1194.71701788092 -147.77495088695)
(1116.00272475087 -40.988219676559 160.389424311884)
(354.806604850772 270.108582620491 1062.22445101514)
(-437.830921666845 -641.014605790711 23.3587164206445)
(-725.856115544623 758.601784292654 -756.105259709526)
(342.534686351799 -101.055131364386 -500.108839758786)
(-66.4689578705614 1236.48498332862 511.231540465173)
(-996.966980709422 790.654305133134 315.884052721035)
(1330.72812351593 -775.166283163668 -31.4947565056557)
(79.2867104127532 -958.697678233065 110.29601602237)
(121.150072928335 -114.266567042078 -1076.2016668056)
(232.098200154287 -168.786535153766 351.077457967372)
(44.7357213911868 1181.85659495959 -244.56782847702)
(358.524463105096 -130.878629375404 -494.931149877561)
(545.088401016921 -719.061302929566 -1132.61646809805)
(-362.329881713798 -141.798791597908 -690.310477967682)
(-727.697651398594 293.946085339797 -542.268926340614)
(-659.977808542813 -853.828338964956 711.99730330332)
(-101.997034470207 -50.3526254900175 -155.491822464759)
(-311.489775255551 884.706138631957 -537.74140555841)
(-283.786046590897 -607.535166216757 -561.01236297275)
(-1291.32828993641 -530.158246639918 405.371925096994)
(1014.42879156757 660.037271552326 645.26296782037)
(-376.606310085958 138.164920000931 549.53257047477)
(102.604879533095 1983.01066606125 878.182208191611)
(206.521803549681 140.221510889398 158.901076283338)
(1273.63481578018 162.478921189015 -358.310182151215)
(336.753551015304 -639.737231169805 359.20844649067)
(-1745.9077634547 78.6907786502529 -116.095118028799)
(-111.979614011373 -335.919507963969 20.5325932773808)
(-119.818591848691 1407.39815921898 -1220.77975556133)
(-973.579510369658 -584.798798799758 -212.422564917318)
(297.701067901094 543.293762245166 -547.681043720556)
(415.00779380508 -784.679236449294 407.485121763819)
(-152.269438322344 -58.3270573420789 529.138789312574)
(-182.811059585919 -193.239034887059 -117.515984132733)