/*---------------------------------------------------------------------------*\
| =========                 |                                                 |
| \\      /  F ield         | OpenFOAM: The Open Source CFD Toolbox           |
|  \\    /   O peration     | Version:  1.3                                   |
|   \\  /    A nd           | Web:      http://www.openfoam.org               |
|    \\/     M anipulation  |                                                 |
\*---------------------------------------------------------------------------*/
FoamFile
{
    version     2.0;
    format      ascii;
    class       dictionary;
    location    "system";
    object      boundariesDict;
}
// * * * * * * * * * * * * * * * * * * * * * * * * * * * * * * * * * * * * * //

dsmcPatchBoundaries
(

     boundary
     {
         patchBoundaryProperties
         {
             patchName                           upperWall;
         }
 
         boundaryModel   dsmcDiffuseWallPatch;
 
         dsmcDiffuseWallPatchProperties
         {
			    temperature 		3000.0;
			    velocity 			(300.0 0.0 0.0);
         }
     }
     
     boundary
     {
         patchBoundaryProperties
         {
             patchName                           lowerWall;
         }
 
         boundaryModel   dsmcDiffuseWallPatch;
 
         dsmcDiffuseWallPatchProperties
         {
			    temperature 		2000.0;
			    velocity 			(300.0 0.0 0.0);
         }
     }

);

dsmcCyclicBoundaries
(

);

dsmcGeneralBoundaries
(

);


// ************************************************************************* //
