/*--------------------------------*- C++ -*----------------------------------*\
| =========                 |                                                 |
| \\      /  F ield         | OpenFOAM: The Open Source CFD Toolbox           |
|  \\    /   O peration     | Version:  1.6                                   |
|   \\  /    A nd           | Web:      www.OpenFOAM.org                      |
|    \\/     M anipulation  |                                                 |
\*---------------------------------------------------------------------------*/
FoamFile
{
    version     2.0;
    format      ascii;
    class       dictionary;
    location    "system";
    object      dsmcInitialiseDict;
}
// * * * * * * * * * * * * * * * * * * * * * * * * * * * * * * * * * * * * * //
configurations
(
    configuration
    {
        type             dsmcMeshFill;

		    numberDensities
		    {
			      N2            4.175e19;
		    };

		    translationalTemperature     2000;
		    rotationalTemperature        2000; 
		    vibrationalTemperature       2000;
        electronicTemperature           0;

		    velocity        (300 0 0);
    }

);

// ************************************************************************ //
