/*---------------------------------------------------------------------------*\
| =========                 |                                                 |
| \\      /  F ield         | OpenFOAM: The Open Source CFD Toolbox           |
|  \\    /   O peration     | Version:  1.3                                   |
|   \\  /    A nd           | Web:      http://www.openfoam.org               |
|    \\/     M anipulation  |                                                 |
\*---------------------------------------------------------------------------*/
FoamFile
{
    version     2.0;
    format      ascii;
    class       dictionary;
    location    "system";
    object      boundariesDict;
}
// * * * * * * * * * * * * * * * * * * * * * * * * * * * * * * * * * * * * * //

dsmcPatchBoundaries
(

     boundary
     {
         patchBoundaryProperties
         {
             patchName   cylinder;
         }
 
         boundaryModel   dsmcDiffuseWallPatch;
 
         dsmcDiffuseWallPatchProperties
         {
			      temperature 		300;
			      velocity 			(0 0 0);
         }
     }


    boundary
    {
        patchBoundaryProperties
        {
            patchName                           flow;
        }

        boundaryModel   dsmcDeletionPatch;

        dsmcDeletionPatchProperties
        {
	          allSpecies		yes;
        }
    }

);

dsmcCyclicBoundaries
(

);

dsmcGeneralBoundaries
(
   
    boundary
    {
        generalBoundaryProperties
        {
            patchName                           flow;
        }

        boundaryModel   dsmcFreeStreamInflowPatch;

        dsmcFreeStreamInflowPatchProperties
        {
			      typeIds						(Ar);
			      translationalTemperature           100;
		        velocity                    (1000 0 0);
		        numberDensities
		        {
		            Ar          1.0e21;
		        }
	      }
    }

);


// ************************************************************************* //
