/*---------------------------------------------------------------------------*\
| =========                 |                                                 |
| \\      /  F ield         | OpenFOAM: The Open Source CFD Toolbox           |
|  \\    /   O peration     | Version:  1.3                                   |
|   \\  /    A nd           | Web:      http://www.openfoam.org               |
|    \\/     M anipulation  |                                                 |
\*---------------------------------------------------------------------------*/
FoamFile
{
    version     2.0;
    format      ascii;
    class       dictionary;
    location    "system";
    object      boundariesDict;
}
// * * * * * * * * * * * * * * * * * * * * * * * * * * * * * * * * * * * * * //

dsmcPatchBoundaries
(
     boundary
     {
         patchBoundaryProperties
         {
             patchName                           inlet;
         }

         boundaryModel   dsmcDeletionPatch;

         dsmcDeletionPatchProperties
         {
              allSpecies                yes;
         }
     }
     
     boundary
     {
         patchBoundaryProperties
         {
             patchName                           outlet;
         }

         boundaryModel   dsmcDeletionPatch;

         dsmcDeletionPatchProperties
         {
              allSpecies                yes;
         }
     }

     boundary
     {
         patchBoundaryProperties
         {
             patchName         top;
         }
 
         boundaryModel   dsmcSpecularWallPatch;
 
         dsmcSpecularWallPatchProperties{}
     }
     
     boundary
     {
         patchBoundaryProperties
         {
             patchName         bottom;
         }
 
         boundaryModel   dsmcSpecularWallPatch;
 
         dsmcSpecularWallPatchProperties{}
     }
);

dsmcCyclicBoundaries
(

);

dsmcGeneralBoundaries
(
	   boundary
     {
         generalBoundaryProperties
         {
             patchName                           inlet;
         }
 
         boundaryModel   dsmcFreeStreamInflowPatch;
 
         dsmcFreeStreamInflowPatchProperties
         {
              typeIds                   (Ar1 Ar2);
       	      velocity			     (0 0 0);
       	      translationalTemperature	     273.0;
	            rotationalTemperature          0.0;
	            vibrationalTemperature         0.0;
	            electronicTemperature         0.0;
              numberDensities
              {
                  Ar1            1.4e20;
                  Ar2            0.0;
              };
         }
     }

     boundary
     {
         generalBoundaryProperties
         {
             patchName                        outlet;
         }
 
         boundaryModel   dsmcFreeStreamInflowPatch;
 
         dsmcFreeStreamInflowPatchProperties
         {
              typeIds                   (Ar1 Ar2);
       	      velocity			     (0 0 0);
       	      translationalTemperature	     273.0;
	            rotationalTemperature          0.0;
	            vibrationalTemperature         0.0;
	            electronicTemperature         0.0;
              numberDensities
              {
                  Ar1            0.0;
                  Ar2            1.4e20;
              };
         }
     }


);

// ************************************************************************* //
